! Generated by qgis2fds 1.0.2 on QGIS 3.28.8-Firenze
! QGIS file: cern_meyrin.qgs
! Date: Thu, 31 Aug 2023, 15:57:08

Selected UTM CRS: WGS 84 / UTM zone 32N
Domain origin: 272434.2E 5124167.9N
  <http://www.openstreetmap.org/?mlat=46.232977774598545&mlon=6.048633882097182&zoom=12>
Domain extent: 272355.7-272512.7E 5124115.4-5124219.4N

Desired resolution: 1.0m
DEM layer: dem_layer
Landuse layer: none
Landuse type file: none
Fire layer: none
FDS DEVCs layer: FIXME
Wind file: none

&HEAD CHID='test_obst' TITLE='Description of test_obst' /

MISC LEVEL_SET_MODE parameter
 1: Wind not affected by the terrain. No fire.
 2: Wind field established over the terrain, then frozen. No fire.
 3: Wind field following the terrain, no fire.
 4: Wind and fire fully-coupled.

&MISC ORIGIN_LAT=46.2329778
      ORIGIN_LON=6.0486339
      NORTH_BEARING=0.
      TERRAIN_IMAGE='test_obst_tex.png'
      LEVEL_SET_MODE=1 
      THICKEN_OBSTRUCTIONS=T /

&TIME T_BEGIN=0.0, T_END=0.0 /

Example REAC, used when LEVEL_SET_MODE=4
_REAC ID='Wood' SOOT_YIELD=0.005 O=2.5 C=3.4 H=6.2
      HEAT_OF_COMBUSTION=17700. /

Domain and its boundary conditions
2 · 2 meshes of 77.5m · 51.0m · 24.2m size and 758880 cells each
&MULT ID='Meshes'
      DX=77.50 I_LOWER=0 I_UPPER=1
      DY=51.00 J_LOWER=0 J_UPPER=1 /
&MESH IJK=155,102,48 MULT_ID='Meshes'
      XB=-77.50,0.00,-51.47,-0.47,435.22,459.41 /
&VENT ID='Domain BC XMIN' DB='XMIN' SURF_ID='OPEN' /
&VENT ID='Domain BC XMAX' DB='XMAX' SURF_ID='OPEN' /
&VENT ID='Domain BC YMIN' DB='YMIN' SURF_ID='OPEN' /
&VENT ID='Domain BC YMAX' DB='YMAX' SURF_ID='OPEN' /
&VENT ID='Domain BC ZMAX' DB='ZMAX' SURF_ID='OPEN' /

Wind rose at domain origin
&DEVC ID='Origin_UV' XYZ=0.,0.,459.31 QUANTITY='U-VELOCITY' /
&DEVC ID='Origin_VV' XYZ=0.,0.,459.31 QUANTITY='V-VELOCITY' /
&DEVC ID='Origin_WV' XYZ=0.,0.,459.31 QUANTITY='W-VELOCITY' /

Landuse boundary conditions
none

Output quantities
&SLCF AGL_SLICE=5. QUANTITY='LEVEL SET VALUE' /
&SLCF AGL_SLICE=5. QUANTITY='TEMPERATURE' VECTOR=T /
&SLCF PBX=0.00 QUANTITY='TEMPERATURE' VECTOR=T /
&SLCF PBY=0.00 QUANTITY='TEMPERATURE' VECTOR=T /

Wind
&WIND SPEED=1., RAMP_SPEED_T='ws', RAMP_DIRECTION_T='wd' /
! Example ramps for wind speed and direction
&RAMP ID='ws', T=   0, F= 10. /
&RAMP ID='ws', T= 600, F= 10. /
&RAMP ID='ws', T=1200, F= 20. /
&RAMP ID='wd', T=   0, F=315. /
&RAMP ID='wd', T= 600, F=270. /
&RAMP ID='wd', T=1200, F=360. /

Terrain (16590 OBSTs)
&OBST XB=-79.00,-78.00,51.03,52.03,435.22,441.32 SURF_ID='INERT' /
&OBST XB=-78.00,-77.00,51.03,52.03,435.22,441.26 SURF_ID='INERT' /
&OBST XB=-77.00,-76.00,51.03,52.03,435.22,441.26 SURF_ID='INERT' /
&OBST XB=-76.00,-75.00,51.03,52.03,435.22,441.28 SURF_ID='INERT' /
&OBST XB=-75.00,-74.00,51.03,52.03,435.22,441.33 SURF_ID='INERT' /
&OBST XB=-74.00,-73.00,51.03,52.03,435.22,443.64 SURF_ID='INERT' /
&OBST XB=-73.00,-72.00,51.03,52.03,435.22,446.68 SURF_ID='INERT' /
&OBST XB=-72.00,-71.00,51.03,52.03,435.22,448.30 SURF_ID='INERT' /
&OBST XB=-71.00,-70.00,51.03,52.03,435.22,451.01 SURF_ID='INERT' /
&OBST XB=-70.00,-69.00,51.03,52.03,435.22,453.75 SURF_ID='INERT' /
&OBST XB=-69.00,-68.00,51.03,52.03,435.22,454.41 SURF_ID='INERT' /
&OBST XB=-68.00,-67.00,51.03,52.03,435.22,453.76 SURF_ID='INERT' /
&OBST XB=-67.00,-66.00,51.03,52.03,435.22,453.30 SURF_ID='INERT' /
&OBST XB=-66.00,-65.00,51.03,52.03,435.22,453.34 SURF_ID='INERT' /
&OBST XB=-65.00,-64.00,51.03,52.03,435.22,453.40 SURF_ID='INERT' /
&OBST XB=-64.00,-63.00,51.03,52.03,435.22,453.44 SURF_ID='INERT' /
&OBST XB=-63.00,-62.00,51.03,52.03,435.22,453.60 SURF_ID='INERT' /
&OBST XB=-62.00,-61.00,51.03,52.03,435.22,453.62 SURF_ID='INERT' /
&OBST XB=-61.00,-60.00,51.03,52.03,435.22,453.54 SURF_ID='INERT' /
&OBST XB=-60.00,-59.00,51.03,52.03,435.22,453.50 SURF_ID='INERT' /
&OBST XB=-59.00,-58.00,51.03,52.03,435.22,453.46 SURF_ID='INERT' /
&OBST XB=-58.00,-57.00,51.03,52.03,435.22,453.41 SURF_ID='INERT' /
&OBST XB=-57.00,-56.00,51.03,52.03,435.22,453.37 SURF_ID='INERT' /
&OBST XB=-56.00,-55.00,51.03,52.03,435.22,453.32 SURF_ID='INERT' /
&OBST XB=-55.00,-54.00,51.03,52.03,435.22,453.29 SURF_ID='INERT' /
&OBST XB=-54.00,-53.00,51.03,52.03,435.22,453.74 SURF_ID='INERT' /
&OBST XB=-53.00,-52.00,51.03,52.03,435.22,452.89 SURF_ID='INERT' /
&OBST XB=-52.00,-51.00,51.03,52.03,435.22,444.44 SURF_ID='INERT' /
&OBST XB=-51.00,-50.00,51.03,52.03,435.22,442.93 SURF_ID='INERT' /
&OBST XB=-50.00,-49.00,51.03,52.03,435.22,442.90 SURF_ID='INERT' /
&OBST XB=-49.00,-48.00,51.03,52.03,435.22,442.61 SURF_ID='INERT' /
&OBST XB=-48.00,-47.00,51.03,52.03,435.22,441.48 SURF_ID='INERT' /
&OBST XB=-47.00,-46.00,51.03,52.03,435.22,441.44 SURF_ID='INERT' /
&OBST XB=-46.00,-45.00,51.03,52.03,435.22,441.40 SURF_ID='INERT' /
&OBST XB=-45.00,-44.00,51.03,52.03,435.22,441.35 SURF_ID='INERT' /
&OBST XB=-44.00,-43.00,51.03,52.03,435.22,441.39 SURF_ID='INERT' /
&OBST XB=-43.00,-42.00,51.03,52.03,435.22,441.52 SURF_ID='INERT' /
&OBST XB=-42.00,-41.00,51.03,52.03,435.22,441.59 SURF_ID='INERT' /
&OBST XB=-41.00,-40.00,51.03,52.03,435.22,441.69 SURF_ID='INERT' /
&OBST XB=-40.00,-39.00,51.03,52.03,435.22,442.02 SURF_ID='INERT' /
&OBST XB=-39.00,-38.00,51.03,52.03,435.22,442.45 SURF_ID='INERT' /
&OBST XB=-38.00,-37.00,51.03,52.03,435.22,443.00 SURF_ID='INERT' /
&OBST XB=-37.00,-36.00,51.03,52.03,435.22,443.40 SURF_ID='INERT' /
&OBST XB=-36.00,-35.00,51.03,52.03,435.22,443.54 SURF_ID='INERT' /
&OBST XB=-35.00,-34.00,51.03,52.03,435.22,443.51 SURF_ID='INERT' /
&OBST XB=-34.00,-33.00,51.03,52.03,435.22,443.40 SURF_ID='INERT' /
&OBST XB=-33.00,-32.00,51.03,52.03,435.22,443.16 SURF_ID='INERT' /
&OBST XB=-32.00,-31.00,51.03,52.03,435.22,442.81 SURF_ID='INERT' /
&OBST XB=-31.00,-30.00,51.03,52.03,435.22,442.46 SURF_ID='INERT' /
&OBST XB=-30.00,-29.00,51.03,52.03,435.22,441.96 SURF_ID='INERT' /
&OBST XB=-29.00,-28.00,51.03,52.03,435.22,441.47 SURF_ID='INERT' /
&OBST XB=-28.00,-27.00,51.03,52.03,435.22,440.88 SURF_ID='INERT' /
&OBST XB=-27.00,-26.00,51.03,52.03,435.22,440.41 SURF_ID='INERT' /
&OBST XB=-26.00,-25.00,51.03,52.03,435.22,440.17 SURF_ID='INERT' /
&OBST XB=-25.00,-24.00,51.03,52.03,435.22,440.02 SURF_ID='INERT' /
&OBST XB=-24.00,-23.00,51.03,52.03,435.22,439.97 SURF_ID='INERT' /
&OBST XB=-23.00,-22.00,51.03,52.03,435.22,439.96 SURF_ID='INERT' /
&OBST XB=-22.00,-21.00,51.03,52.03,435.22,439.94 SURF_ID='INERT' /
&OBST XB=-21.00,-20.00,51.03,52.03,435.22,439.92 SURF_ID='INERT' /
&OBST XB=-20.00,-19.00,51.03,52.03,435.22,439.89 SURF_ID='INERT' /
&OBST XB=-19.00,-18.00,51.03,52.03,435.22,439.85 SURF_ID='INERT' /
&OBST XB=-18.00,-17.00,51.03,52.03,435.22,439.80 SURF_ID='INERT' /
&OBST XB=-17.00,-16.00,51.03,52.03,435.22,439.74 SURF_ID='INERT' /
&OBST XB=-16.00,-15.00,51.03,52.03,435.22,439.69 SURF_ID='INERT' /
&OBST XB=-15.00,-14.00,51.03,52.03,435.22,439.63 SURF_ID='INERT' /
&OBST XB=-14.00,-13.00,51.03,52.03,435.22,439.57 SURF_ID='INERT' /
&OBST XB=-13.00,-12.00,51.03,52.03,435.22,439.52 SURF_ID='INERT' /
&OBST XB=-12.00,-11.00,51.03,52.03,435.22,439.48 SURF_ID='INERT' /
&OBST XB=-11.00,-10.00,51.03,52.03,435.22,439.44 SURF_ID='INERT' /
&OBST XB=-10.00,-9.00,51.03,52.03,435.22,439.41 SURF_ID='INERT' /
&OBST XB=-9.00,-8.00,51.03,52.03,435.22,439.37 SURF_ID='INERT' /
&OBST XB=-8.00,-7.00,51.03,52.03,435.22,439.33 SURF_ID='INERT' /
&OBST XB=-7.00,-6.00,51.03,52.03,435.22,439.29 SURF_ID='INERT' /
&OBST XB=-6.00,-5.00,51.03,52.03,435.22,439.24 SURF_ID='INERT' /
&OBST XB=-5.00,-4.00,51.03,52.03,435.22,439.22 SURF_ID='INERT' /
&OBST XB=-4.00,-3.00,51.03,52.03,435.22,439.19 SURF_ID='INERT' /
&OBST XB=-3.00,-2.00,51.03,52.03,435.22,439.16 SURF_ID='INERT' /
&OBST XB=-2.00,-1.00,51.03,52.03,435.22,439.12 SURF_ID='INERT' /
&OBST XB=-1.00,0.00,51.03,52.03,435.22,439.10 SURF_ID='INERT' /
&OBST XB=0.00,1.00,51.03,52.03,435.22,439.11 SURF_ID='INERT' /
&OBST XB=1.00,2.00,51.03,52.03,435.22,439.18 SURF_ID='INERT' /
&OBST XB=2.00,3.00,51.03,52.03,435.22,439.25 SURF_ID='INERT' /
&OBST XB=3.00,4.00,51.03,52.03,435.22,439.48 SURF_ID='INERT' /
&OBST XB=4.00,5.00,51.03,52.03,435.22,439.65 SURF_ID='INERT' /
&OBST XB=5.00,6.00,51.03,52.03,435.22,439.74 SURF_ID='INERT' /
&OBST XB=6.00,7.00,51.03,52.03,435.22,439.76 SURF_ID='INERT' /
&OBST XB=7.00,8.00,51.03,52.03,435.22,439.77 SURF_ID='INERT' /
&OBST XB=8.00,9.00,51.03,52.03,435.22,439.90 SURF_ID='INERT' /
&OBST XB=9.00,10.00,51.03,52.03,435.22,442.21 SURF_ID='INERT' /
&OBST XB=10.00,11.00,51.03,52.03,435.22,443.70 SURF_ID='INERT' /
&OBST XB=11.00,12.00,51.03,52.03,435.22,443.83 SURF_ID='INERT' /
&OBST XB=12.00,13.00,51.03,52.03,435.22,443.73 SURF_ID='INERT' /
&OBST XB=13.00,14.00,51.03,52.03,435.22,443.69 SURF_ID='INERT' /
&OBST XB=14.00,15.00,51.03,52.03,435.22,443.67 SURF_ID='INERT' /
&OBST XB=15.00,16.00,51.03,52.03,435.22,443.68 SURF_ID='INERT' /
&OBST XB=16.00,17.00,51.03,52.03,435.22,443.70 SURF_ID='INERT' /
&OBST XB=17.00,18.00,51.03,52.03,435.22,443.71 SURF_ID='INERT' /
&OBST XB=18.00,19.00,51.03,52.03,435.22,443.73 SURF_ID='INERT' /
&OBST XB=19.00,20.00,51.03,52.03,435.22,443.79 SURF_ID='INERT' /
&OBST XB=20.00,21.00,51.03,52.03,435.22,443.91 SURF_ID='INERT' /
&OBST XB=21.00,22.00,51.03,52.03,435.22,443.96 SURF_ID='INERT' /
&OBST XB=22.00,23.00,51.03,52.03,435.22,443.50 SURF_ID='INERT' /
&OBST XB=23.00,24.00,51.03,52.03,435.22,443.02 SURF_ID='INERT' /
&OBST XB=24.00,25.00,51.03,52.03,435.22,442.38 SURF_ID='INERT' /
&OBST XB=25.00,26.00,51.03,52.03,435.22,440.23 SURF_ID='INERT' /
&OBST XB=26.00,27.00,51.03,52.03,435.22,439.40 SURF_ID='INERT' /
&OBST XB=27.00,28.00,51.03,52.03,435.22,439.39 SURF_ID='INERT' /
&OBST XB=28.00,29.00,51.03,52.03,435.22,439.38 SURF_ID='INERT' /
&OBST XB=29.00,30.00,51.03,52.03,435.22,439.18 SURF_ID='INERT' /
&OBST XB=30.00,31.00,51.03,52.03,435.22,437.39 SURF_ID='INERT' /
&OBST XB=31.00,32.00,51.03,52.03,435.22,435.82 SURF_ID='INERT' /
&OBST XB=32.00,33.00,51.03,52.03,435.22,435.74 SURF_ID='INERT' /
&OBST XB=33.00,34.00,51.03,52.03,435.22,435.72 SURF_ID='INERT' /
&OBST XB=34.00,35.00,51.03,52.03,435.22,435.72 SURF_ID='INERT' /
&OBST XB=35.00,36.00,51.03,52.03,435.22,435.74 SURF_ID='INERT' /
&OBST XB=36.00,37.00,51.03,52.03,435.22,435.99 SURF_ID='INERT' /
&OBST XB=37.00,38.00,51.03,52.03,435.22,436.16 SURF_ID='INERT' /
&OBST XB=38.00,39.00,51.03,52.03,435.22,436.20 SURF_ID='INERT' /
&OBST XB=39.00,40.00,51.03,52.03,435.22,436.22 SURF_ID='INERT' /
&OBST XB=40.00,41.00,51.03,52.03,435.22,436.29 SURF_ID='INERT' /
&OBST XB=41.00,42.00,51.03,52.03,435.22,436.28 SURF_ID='INERT' /
&OBST XB=42.00,43.00,51.03,52.03,435.22,436.26 SURF_ID='INERT' /
&OBST XB=43.00,44.00,51.03,52.03,435.22,436.21 SURF_ID='INERT' /
&OBST XB=44.00,45.00,51.03,52.03,435.22,436.17 SURF_ID='INERT' /
&OBST XB=45.00,46.00,51.03,52.03,435.22,436.11 SURF_ID='INERT' /
&OBST XB=46.00,47.00,51.03,52.03,435.22,436.17 SURF_ID='INERT' /
&OBST XB=47.00,48.00,51.03,52.03,435.22,436.17 SURF_ID='INERT' /
&OBST XB=48.00,49.00,51.03,52.03,435.22,436.09 SURF_ID='INERT' /
&OBST XB=49.00,50.00,51.03,52.03,435.22,435.91 SURF_ID='INERT' /
&OBST XB=50.00,51.00,51.03,52.03,435.22,435.68 SURF_ID='INERT' /
&OBST XB=51.00,52.00,51.03,52.03,435.22,435.53 SURF_ID='INERT' /
&OBST XB=52.00,53.00,51.03,52.03,435.22,435.48 SURF_ID='INERT' /
&OBST XB=53.00,54.00,51.03,52.03,435.22,435.43 SURF_ID='INERT' /
&OBST XB=54.00,55.00,51.03,52.03,435.22,435.39 SURF_ID='INERT' /
&OBST XB=55.00,56.00,51.03,52.03,435.22,435.36 SURF_ID='INERT' /
&OBST XB=56.00,57.00,51.03,52.03,435.22,435.32 SURF_ID='INERT' /
&OBST XB=57.00,58.00,51.03,52.03,435.22,435.30 SURF_ID='INERT' /
&OBST XB=58.00,59.00,51.03,52.03,435.22,435.28 SURF_ID='INERT' /
&OBST XB=59.00,60.00,51.03,52.03,435.22,435.26 SURF_ID='INERT' /
&OBST XB=60.00,61.00,51.03,52.03,435.22,435.24 SURF_ID='INERT' /
&OBST XB=61.00,62.00,51.03,52.03,435.22,435.25 SURF_ID='INERT' /
&OBST XB=62.00,63.00,51.03,52.03,435.22,435.25 SURF_ID='INERT' /
&OBST XB=63.00,64.00,51.03,52.03,435.22,435.28 SURF_ID='INERT' /
&OBST XB=64.00,65.00,51.03,52.03,435.22,436.35 SURF_ID='INERT' /
&OBST XB=65.00,66.00,51.03,52.03,435.22,437.87 SURF_ID='INERT' /
&OBST XB=66.00,67.00,51.03,52.03,435.22,439.81 SURF_ID='INERT' /
&OBST XB=67.00,68.00,51.03,52.03,435.22,440.21 SURF_ID='INERT' /
&OBST XB=68.00,69.00,51.03,52.03,435.22,440.82 SURF_ID='INERT' /
&OBST XB=69.00,70.00,51.03,52.03,435.22,440.83 SURF_ID='INERT' /
&OBST XB=70.00,71.00,51.03,52.03,435.22,440.82 SURF_ID='INERT' /
&OBST XB=71.00,72.00,51.03,52.03,435.22,440.81 SURF_ID='INERT' /
&OBST XB=72.00,73.00,51.03,52.03,435.22,440.80 SURF_ID='INERT' /
&OBST XB=73.00,74.00,51.03,52.03,435.22,440.78 SURF_ID='INERT' /
&OBST XB=74.00,75.00,51.03,52.03,435.22,440.77 SURF_ID='INERT' /
&OBST XB=75.00,76.00,51.03,52.03,435.22,440.77 SURF_ID='INERT' /
&OBST XB=76.00,77.00,51.03,52.03,435.22,440.88 SURF_ID='INERT' /
&OBST XB=77.00,78.00,51.03,52.03,435.22,441.04 SURF_ID='INERT' /
&OBST XB=78.00,79.00,51.03,52.03,435.22,441.50 SURF_ID='INERT' /
&OBST XB=-79.00,-78.00,50.03,51.03,435.22,441.29 SURF_ID='INERT' /
&OBST XB=-78.00,-77.00,50.03,51.03,435.22,441.26 SURF_ID='INERT' /
&OBST XB=-77.00,-76.00,50.03,51.03,435.22,441.24 SURF_ID='INERT' /
&OBST XB=-76.00,-75.00,50.03,51.03,435.22,441.29 SURF_ID='INERT' /
&OBST XB=-75.00,-74.00,50.03,51.03,435.22,441.30 SURF_ID='INERT' /
&OBST XB=-74.00,-73.00,50.03,51.03,435.22,441.27 SURF_ID='INERT' /
&OBST XB=-73.00,-72.00,50.03,51.03,435.22,441.33 SURF_ID='INERT' /
&OBST XB=-72.00,-71.00,50.03,51.03,435.22,442.90 SURF_ID='INERT' /
&OBST XB=-71.00,-70.00,50.03,51.03,435.22,447.90 SURF_ID='INERT' /
&OBST XB=-70.00,-69.00,50.03,51.03,435.22,453.45 SURF_ID='INERT' /
&OBST XB=-69.00,-68.00,50.03,51.03,435.22,454.10 SURF_ID='INERT' /
&OBST XB=-68.00,-67.00,50.03,51.03,435.22,453.71 SURF_ID='INERT' /
&OBST XB=-67.00,-66.00,50.03,51.03,435.22,453.32 SURF_ID='INERT' /
&OBST XB=-66.00,-65.00,50.03,51.03,435.22,453.37 SURF_ID='INERT' /
&OBST XB=-65.00,-64.00,50.03,51.03,435.22,453.40 SURF_ID='INERT' /
&OBST XB=-64.00,-63.00,50.03,51.03,435.22,453.44 SURF_ID='INERT' /
&OBST XB=-63.00,-62.00,50.03,51.03,435.22,453.52 SURF_ID='INERT' /
&OBST XB=-62.00,-61.00,50.03,51.03,435.22,453.60 SURF_ID='INERT' /
&OBST XB=-61.00,-60.00,50.03,51.03,435.22,453.58 SURF_ID='INERT' /
&OBST XB=-60.00,-59.00,50.03,51.03,435.22,453.49 SURF_ID='INERT' /
&OBST XB=-59.00,-58.00,50.03,51.03,435.22,453.48 SURF_ID='INERT' /
&OBST XB=-58.00,-57.00,50.03,51.03,435.22,453.43 SURF_ID='INERT' /
&OBST XB=-57.00,-56.00,50.03,51.03,435.22,453.35 SURF_ID='INERT' /
&OBST XB=-56.00,-55.00,50.03,51.03,435.22,453.30 SURF_ID='INERT' /
&OBST XB=-55.00,-54.00,50.03,51.03,435.22,453.33 SURF_ID='INERT' /
&OBST XB=-54.00,-53.00,50.03,51.03,435.22,454.10 SURF_ID='INERT' /
&OBST XB=-53.00,-52.00,50.03,51.03,435.22,448.72 SURF_ID='INERT' /
&OBST XB=-52.00,-51.00,50.03,51.03,435.22,443.04 SURF_ID='INERT' /
&OBST XB=-51.00,-50.00,50.03,51.03,435.22,442.92 SURF_ID='INERT' /
&OBST XB=-50.00,-49.00,50.03,51.03,435.22,442.80 SURF_ID='INERT' /
&OBST XB=-49.00,-48.00,50.03,51.03,435.22,441.65 SURF_ID='INERT' /
&OBST XB=-48.00,-47.00,50.03,51.03,435.22,441.53 SURF_ID='INERT' /
&OBST XB=-47.00,-46.00,50.03,51.03,435.22,441.48 SURF_ID='INERT' /
&OBST XB=-46.00,-45.00,50.03,51.03,435.22,441.44 SURF_ID='INERT' /
&OBST XB=-45.00,-44.00,50.03,51.03,435.22,441.43 SURF_ID='INERT' /
&OBST XB=-44.00,-43.00,50.03,51.03,435.22,441.55 SURF_ID='INERT' /
&OBST XB=-43.00,-42.00,50.03,51.03,435.22,441.62 SURF_ID='INERT' /
&OBST XB=-42.00,-41.00,50.03,51.03,435.22,441.69 SURF_ID='INERT' /
&OBST XB=-41.00,-40.00,50.03,51.03,435.22,441.94 SURF_ID='INERT' /
&OBST XB=-40.00,-39.00,50.03,51.03,435.22,442.36 SURF_ID='INERT' /
&OBST XB=-39.00,-38.00,50.03,51.03,435.22,442.81 SURF_ID='INERT' /
&OBST XB=-38.00,-37.00,50.03,51.03,435.22,443.38 SURF_ID='INERT' /
&OBST XB=-37.00,-36.00,50.03,51.03,435.22,443.68 SURF_ID='INERT' /
&OBST XB=-36.00,-35.00,50.03,51.03,435.22,443.72 SURF_ID='INERT' /
&OBST XB=-35.00,-34.00,50.03,51.03,435.22,443.66 SURF_ID='INERT' /
&OBST XB=-34.00,-33.00,50.03,51.03,435.22,443.60 SURF_ID='INERT' /
&OBST XB=-33.00,-32.00,50.03,51.03,435.22,443.48 SURF_ID='INERT' /
&OBST XB=-32.00,-31.00,50.03,51.03,435.22,443.17 SURF_ID='INERT' /
&OBST XB=-31.00,-30.00,50.03,51.03,435.22,442.71 SURF_ID='INERT' /
&OBST XB=-30.00,-29.00,50.03,51.03,435.22,442.21 SURF_ID='INERT' /
&OBST XB=-29.00,-28.00,50.03,51.03,435.22,441.64 SURF_ID='INERT' /
&OBST XB=-28.00,-27.00,50.03,51.03,435.22,440.93 SURF_ID='INERT' /
&OBST XB=-27.00,-26.00,50.03,51.03,435.22,440.37 SURF_ID='INERT' /
&OBST XB=-26.00,-25.00,50.03,51.03,435.22,440.07 SURF_ID='INERT' /
&OBST XB=-25.00,-24.00,50.03,51.03,435.22,439.99 SURF_ID='INERT' /
&OBST XB=-24.00,-23.00,50.03,51.03,435.22,439.97 SURF_ID='INERT' /
&OBST XB=-23.00,-22.00,50.03,51.03,435.22,439.97 SURF_ID='INERT' /
&OBST XB=-22.00,-21.00,50.03,51.03,435.22,439.94 SURF_ID='INERT' /
&OBST XB=-21.00,-20.00,50.03,51.03,435.22,439.93 SURF_ID='INERT' /
&OBST XB=-20.00,-19.00,50.03,51.03,435.22,439.91 SURF_ID='INERT' /
&OBST XB=-19.00,-18.00,50.03,51.03,435.22,439.87 SURF_ID='INERT' /
&OBST XB=-18.00,-17.00,50.03,51.03,435.22,439.84 SURF_ID='INERT' /
&OBST XB=-17.00,-16.00,50.03,51.03,435.22,439.79 SURF_ID='INERT' /
&OBST XB=-16.00,-15.00,50.03,51.03,435.22,439.73 SURF_ID='INERT' /
&OBST XB=-15.00,-14.00,50.03,51.03,435.22,439.69 SURF_ID='INERT' /
&OBST XB=-14.00,-13.00,50.03,51.03,435.22,439.63 SURF_ID='INERT' /
&OBST XB=-13.00,-12.00,50.03,51.03,435.22,439.56 SURF_ID='INERT' /
&OBST XB=-12.00,-11.00,50.03,51.03,435.22,439.48 SURF_ID='INERT' /
&OBST XB=-11.00,-10.00,50.03,51.03,435.22,439.42 SURF_ID='INERT' /
&OBST XB=-10.00,-9.00,50.03,51.03,435.22,439.38 SURF_ID='INERT' /
&OBST XB=-9.00,-8.00,50.03,51.03,435.22,439.34 SURF_ID='INERT' /
&OBST XB=-8.00,-7.00,50.03,51.03,435.22,439.30 SURF_ID='INERT' /
&OBST XB=-7.00,-6.00,50.03,51.03,435.22,439.26 SURF_ID='INERT' /
&OBST XB=-6.00,-5.00,50.03,51.03,435.22,439.22 SURF_ID='INERT' /
&OBST XB=-5.00,-4.00,50.03,51.03,435.22,439.19 SURF_ID='INERT' /
&OBST XB=-4.00,-3.00,50.03,51.03,435.22,439.16 SURF_ID='INERT' /
&OBST XB=-3.00,-2.00,50.03,51.03,435.22,439.13 SURF_ID='INERT' /
&OBST XB=-2.00,-1.00,50.03,51.03,435.22,439.09 SURF_ID='INERT' /
&OBST XB=-1.00,0.00,50.03,51.03,435.22,439.05 SURF_ID='INERT' /
&OBST XB=0.00,1.00,50.03,51.03,435.22,439.01 SURF_ID='INERT' /
&OBST XB=1.00,2.00,50.03,51.03,435.22,438.99 SURF_ID='INERT' /
&OBST XB=2.00,3.00,50.03,51.03,435.22,438.98 SURF_ID='INERT' /
&OBST XB=3.00,4.00,50.03,51.03,435.22,439.04 SURF_ID='INERT' /
&OBST XB=4.00,5.00,50.03,51.03,435.22,439.16 SURF_ID='INERT' /
&OBST XB=5.00,6.00,50.03,51.03,435.22,439.40 SURF_ID='INERT' /
&OBST XB=6.00,7.00,50.03,51.03,435.22,439.64 SURF_ID='INERT' /
&OBST XB=7.00,8.00,50.03,51.03,435.22,439.76 SURF_ID='INERT' /
&OBST XB=8.00,9.00,50.03,51.03,435.22,439.78 SURF_ID='INERT' /
&OBST XB=9.00,10.00,50.03,51.03,435.22,439.89 SURF_ID='INERT' /
&OBST XB=10.00,11.00,50.03,51.03,435.22,440.81 SURF_ID='INERT' /
&OBST XB=11.00,12.00,50.03,51.03,435.22,442.98 SURF_ID='INERT' /
&OBST XB=12.00,13.00,50.03,51.03,435.22,445.31 SURF_ID='INERT' /
&OBST XB=13.00,14.00,50.03,51.03,435.22,443.88 SURF_ID='INERT' /
&OBST XB=14.00,15.00,50.03,51.03,435.22,443.65 SURF_ID='INERT' /
&OBST XB=15.00,16.00,50.03,51.03,435.22,443.66 SURF_ID='INERT' /
&OBST XB=16.00,17.00,50.03,51.03,435.22,443.67 SURF_ID='INERT' /
&OBST XB=17.00,18.00,50.03,51.03,435.22,443.68 SURF_ID='INERT' /
&OBST XB=18.00,19.00,50.03,51.03,435.22,443.70 SURF_ID='INERT' /
&OBST XB=19.00,20.00,50.03,51.03,435.22,443.70 SURF_ID='INERT' /
&OBST XB=20.00,21.00,50.03,51.03,435.22,443.73 SURF_ID='INERT' /
&OBST XB=21.00,22.00,50.03,51.03,435.22,443.80 SURF_ID='INERT' /
&OBST XB=22.00,23.00,50.03,51.03,435.22,443.89 SURF_ID='INERT' /
&OBST XB=23.00,24.00,50.03,51.03,435.22,443.93 SURF_ID='INERT' /
&OBST XB=24.00,25.00,50.03,51.03,435.22,443.82 SURF_ID='INERT' /
&OBST XB=25.00,26.00,50.03,51.03,435.22,440.76 SURF_ID='INERT' /
&OBST XB=26.00,27.00,50.03,51.03,435.22,439.41 SURF_ID='INERT' /
&OBST XB=27.00,28.00,50.03,51.03,435.22,439.39 SURF_ID='INERT' /
&OBST XB=28.00,29.00,50.03,51.03,435.22,439.36 SURF_ID='INERT' /
&OBST XB=29.00,30.00,50.03,51.03,435.22,438.71 SURF_ID='INERT' /
&OBST XB=30.00,31.00,50.03,51.03,435.22,436.43 SURF_ID='INERT' /
&OBST XB=31.00,32.00,50.03,51.03,435.22,435.72 SURF_ID='INERT' /
&OBST XB=32.00,33.00,50.03,51.03,435.22,435.72 SURF_ID='INERT' /
&OBST XB=33.00,34.00,50.03,51.03,435.22,435.71 SURF_ID='INERT' /
&OBST XB=34.00,35.00,50.03,51.03,435.22,435.73 SURF_ID='INERT' /
&OBST XB=35.00,36.00,50.03,51.03,435.22,435.75 SURF_ID='INERT' /
&OBST XB=36.00,37.00,50.03,51.03,435.22,435.81 SURF_ID='INERT' /
&OBST XB=37.00,38.00,50.03,51.03,435.22,435.82 SURF_ID='INERT' /
&OBST XB=38.00,39.00,50.03,51.03,435.22,435.91 SURF_ID='INERT' /
&OBST XB=39.00,40.00,50.03,51.03,435.22,436.24 SURF_ID='INERT' /
&OBST XB=40.00,41.00,50.03,51.03,435.22,436.38 SURF_ID='INERT' /
&OBST XB=41.00,42.00,50.03,51.03,435.22,436.37 SURF_ID='INERT' /
&OBST XB=42.00,43.00,50.03,51.03,435.22,436.35 SURF_ID='INERT' /
&OBST XB=43.00,44.00,50.03,51.03,435.22,436.28 SURF_ID='INERT' /
&OBST XB=44.00,45.00,50.03,51.03,435.22,436.24 SURF_ID='INERT' /
&OBST XB=45.00,46.00,50.03,51.03,435.22,436.20 SURF_ID='INERT' /
&OBST XB=46.00,47.00,50.03,51.03,435.22,436.29 SURF_ID='INERT' /
&OBST XB=47.00,48.00,50.03,51.03,435.22,436.26 SURF_ID='INERT' /
&OBST XB=48.00,49.00,50.03,51.03,435.22,436.12 SURF_ID='INERT' /
&OBST XB=49.00,50.00,50.03,51.03,435.22,435.89 SURF_ID='INERT' /
&OBST XB=50.00,51.00,50.03,51.03,435.22,435.66 SURF_ID='INERT' /
&OBST XB=51.00,52.00,50.03,51.03,435.22,435.51 SURF_ID='INERT' /
&OBST XB=52.00,53.00,50.03,51.03,435.22,435.46 SURF_ID='INERT' /
&OBST XB=53.00,54.00,50.03,51.03,435.22,435.41 SURF_ID='INERT' /
&OBST XB=54.00,55.00,50.03,51.03,435.22,435.37 SURF_ID='INERT' /
&OBST XB=55.00,56.00,50.03,51.03,435.22,435.35 SURF_ID='INERT' /
&OBST XB=56.00,57.00,50.03,51.03,435.22,435.30 SURF_ID='INERT' /
&OBST XB=57.00,58.00,50.03,51.03,435.22,435.26 SURF_ID='INERT' /
&OBST XB=58.00,59.00,50.03,51.03,435.22,435.47 SURF_ID='INERT' /
&OBST XB=59.00,60.00,50.03,51.03,435.22,435.32 SURF_ID='INERT' /
&OBST XB=60.00,61.00,50.03,51.03,435.22,435.24 SURF_ID='INERT' /
&OBST XB=61.00,62.00,50.03,51.03,435.22,435.23 SURF_ID='INERT' /
&OBST XB=62.00,63.00,50.03,51.03,435.22,435.22 SURF_ID='INERT' /
&OBST XB=63.00,64.00,50.03,51.03,435.22,435.57 SURF_ID='INERT' /
&OBST XB=64.00,65.00,50.03,51.03,435.22,439.75 SURF_ID='INERT' /
&OBST XB=65.00,66.00,50.03,51.03,435.22,441.01 SURF_ID='INERT' /
&OBST XB=66.00,67.00,50.03,51.03,435.22,442.35 SURF_ID='INERT' /
&OBST XB=67.00,68.00,50.03,51.03,435.22,438.03 SURF_ID='INERT' /
&OBST XB=68.00,69.00,50.03,51.03,435.22,439.09 SURF_ID='INERT' /
&OBST XB=69.00,70.00,50.03,51.03,435.22,440.21 SURF_ID='INERT' /
&OBST XB=70.00,71.00,50.03,51.03,435.22,440.85 SURF_ID='INERT' /
&OBST XB=71.00,72.00,50.03,51.03,435.22,440.85 SURF_ID='INERT' /
&OBST XB=72.00,73.00,50.03,51.03,435.22,440.82 SURF_ID='INERT' /
&OBST XB=73.00,74.00,50.03,51.03,435.22,440.82 SURF_ID='INERT' /
&OBST XB=74.00,75.00,50.03,51.03,435.22,440.80 SURF_ID='INERT' /
&OBST XB=75.00,76.00,50.03,51.03,435.22,440.82 SURF_ID='INERT' /
&OBST XB=76.00,77.00,50.03,51.03,435.22,440.93 SURF_ID='INERT' /
&OBST XB=77.00,78.00,50.03,51.03,435.22,441.06 SURF_ID='INERT' /
&OBST XB=78.00,79.00,50.03,51.03,435.22,441.45 SURF_ID='INERT' /
&OBST XB=-79.00,-78.00,49.03,50.03,435.22,441.86 SURF_ID='INERT' /
&OBST XB=-78.00,-77.00,49.03,50.03,435.22,441.42 SURF_ID='INERT' /
&OBST XB=-77.00,-76.00,49.03,50.03,435.22,441.32 SURF_ID='INERT' /
&OBST XB=-76.00,-75.00,49.03,50.03,435.22,441.42 SURF_ID='INERT' /
&OBST XB=-75.00,-74.00,49.03,50.03,435.22,441.33 SURF_ID='INERT' /
&OBST XB=-74.00,-73.00,49.03,50.03,435.22,441.24 SURF_ID='INERT' /
&OBST XB=-73.00,-72.00,49.03,50.03,435.22,441.24 SURF_ID='INERT' /
&OBST XB=-72.00,-71.00,49.03,50.03,435.22,441.28 SURF_ID='INERT' /
&OBST XB=-71.00,-70.00,49.03,50.03,435.22,445.64 SURF_ID='INERT' /
&OBST XB=-70.00,-69.00,49.03,50.03,435.22,454.12 SURF_ID='INERT' /
&OBST XB=-69.00,-68.00,49.03,50.03,435.22,453.72 SURF_ID='INERT' /
&OBST XB=-68.00,-67.00,49.03,50.03,435.22,453.36 SURF_ID='INERT' /
&OBST XB=-67.00,-66.00,49.03,50.03,435.22,453.37 SURF_ID='INERT' /
&OBST XB=-66.00,-65.00,49.03,50.03,435.22,453.40 SURF_ID='INERT' /
&OBST XB=-65.00,-64.00,49.03,50.03,435.22,453.42 SURF_ID='INERT' /
&OBST XB=-64.00,-63.00,49.03,50.03,435.22,453.47 SURF_ID='INERT' /
&OBST XB=-63.00,-62.00,49.03,50.03,435.22,453.53 SURF_ID='INERT' /
&OBST XB=-62.00,-61.00,49.03,50.03,435.22,453.79 SURF_ID='INERT' /
&OBST XB=-61.00,-60.00,49.03,50.03,435.22,453.77 SURF_ID='INERT' /
&OBST XB=-60.00,-59.00,49.03,50.03,435.22,453.49 SURF_ID='INERT' /
&OBST XB=-59.00,-58.00,49.03,50.03,435.22,453.66 SURF_ID='INERT' /
&OBST XB=-58.00,-57.00,49.03,50.03,435.22,453.55 SURF_ID='INERT' /
&OBST XB=-57.00,-56.00,49.03,50.03,435.22,453.33 SURF_ID='INERT' /
&OBST XB=-56.00,-55.00,49.03,50.03,435.22,453.29 SURF_ID='INERT' /
&OBST XB=-55.00,-54.00,49.03,50.03,435.22,453.70 SURF_ID='INERT' /
&OBST XB=-54.00,-53.00,49.03,50.03,435.22,452.64 SURF_ID='INERT' /
&OBST XB=-53.00,-52.00,49.03,50.03,435.22,444.37 SURF_ID='INERT' /
&OBST XB=-52.00,-51.00,49.03,50.03,435.22,442.95 SURF_ID='INERT' /
&OBST XB=-51.00,-50.00,49.03,50.03,435.22,442.93 SURF_ID='INERT' /
&OBST XB=-50.00,-49.00,49.03,50.03,435.22,442.60 SURF_ID='INERT' /
&OBST XB=-49.00,-48.00,49.03,50.03,435.22,441.61 SURF_ID='INERT' /
&OBST XB=-48.00,-47.00,49.03,50.03,435.22,441.57 SURF_ID='INERT' /
&OBST XB=-47.00,-46.00,49.03,50.03,435.22,441.53 SURF_ID='INERT' /
&OBST XB=-46.00,-45.00,49.03,50.03,435.22,441.48 SURF_ID='INERT' /
&OBST XB=-45.00,-44.00,49.03,50.03,435.22,441.54 SURF_ID='INERT' /
&OBST XB=-44.00,-43.00,49.03,50.03,435.22,441.67 SURF_ID='INERT' /
&OBST XB=-43.00,-42.00,49.03,50.03,435.22,441.72 SURF_ID='INERT' /
&OBST XB=-42.00,-41.00,49.03,50.03,435.22,441.87 SURF_ID='INERT' /
&OBST XB=-41.00,-40.00,49.03,50.03,435.22,442.28 SURF_ID='INERT' /
&OBST XB=-40.00,-39.00,49.03,50.03,435.22,442.77 SURF_ID='INERT' /
&OBST XB=-39.00,-38.00,49.03,50.03,435.22,443.29 SURF_ID='INERT' /
&OBST XB=-38.00,-37.00,49.03,50.03,435.22,443.67 SURF_ID='INERT' /
&OBST XB=-37.00,-36.00,49.03,50.03,435.22,443.78 SURF_ID='INERT' /
&OBST XB=-36.00,-35.00,49.03,50.03,435.22,443.78 SURF_ID='INERT' /
&OBST XB=-35.00,-34.00,49.03,50.03,435.22,443.71 SURF_ID='INERT' /
&OBST XB=-34.00,-33.00,49.03,50.03,435.22,443.65 SURF_ID='INERT' /
&OBST XB=-33.00,-32.00,49.03,50.03,435.22,443.56 SURF_ID='INERT' /
&OBST XB=-32.00,-31.00,49.03,50.03,435.22,443.34 SURF_ID='INERT' /
&OBST XB=-31.00,-30.00,49.03,50.03,435.22,442.89 SURF_ID='INERT' /
&OBST XB=-30.00,-29.00,49.03,50.03,435.22,442.44 SURF_ID='INERT' /
&OBST XB=-29.00,-28.00,49.03,50.03,435.22,441.76 SURF_ID='INERT' /
&OBST XB=-28.00,-27.00,49.03,50.03,435.22,440.82 SURF_ID='INERT' /
&OBST XB=-27.00,-26.00,49.03,50.03,435.22,440.20 SURF_ID='INERT' /
&OBST XB=-26.00,-25.00,49.03,50.03,435.22,440.03 SURF_ID='INERT' /
&OBST XB=-25.00,-24.00,49.03,50.03,435.22,439.98 SURF_ID='INERT' /
&OBST XB=-24.00,-23.00,49.03,50.03,435.22,439.97 SURF_ID='INERT' /
&OBST XB=-23.00,-22.00,49.03,50.03,435.22,439.95 SURF_ID='INERT' /
&OBST XB=-22.00,-21.00,49.03,50.03,435.22,439.93 SURF_ID='INERT' /
&OBST XB=-21.00,-20.00,49.03,50.03,435.22,439.93 SURF_ID='INERT' /
&OBST XB=-20.00,-19.00,49.03,50.03,435.22,439.92 SURF_ID='INERT' /
&OBST XB=-19.00,-18.00,49.03,50.03,435.22,439.90 SURF_ID='INERT' /
&OBST XB=-18.00,-17.00,49.03,50.03,435.22,439.87 SURF_ID='INERT' /
&OBST XB=-17.00,-16.00,49.03,50.03,435.22,439.82 SURF_ID='INERT' /
&OBST XB=-16.00,-15.00,49.03,50.03,435.22,439.78 SURF_ID='INERT' /
&OBST XB=-15.00,-14.00,49.03,50.03,435.22,439.72 SURF_ID='INERT' /
&OBST XB=-14.00,-13.00,49.03,50.03,435.22,439.68 SURF_ID='INERT' /
&OBST XB=-13.00,-12.00,49.03,50.03,435.22,439.64 SURF_ID='INERT' /
&OBST XB=-12.00,-11.00,49.03,50.03,435.22,439.56 SURF_ID='INERT' /
&OBST XB=-11.00,-10.00,49.03,50.03,435.22,439.47 SURF_ID='INERT' /
&OBST XB=-10.00,-9.00,49.03,50.03,435.22,439.39 SURF_ID='INERT' /
&OBST XB=-9.00,-8.00,49.03,50.03,435.22,439.32 SURF_ID='INERT' /
&OBST XB=-8.00,-7.00,49.03,50.03,435.22,439.27 SURF_ID='INERT' /
&OBST XB=-7.00,-6.00,49.03,50.03,435.22,439.24 SURF_ID='INERT' /
&OBST XB=-6.00,-5.00,49.03,50.03,435.22,439.21 SURF_ID='INERT' /
&OBST XB=-5.00,-4.00,49.03,50.03,435.22,439.17 SURF_ID='INERT' /
&OBST XB=-4.00,-3.00,49.03,50.03,435.22,439.14 SURF_ID='INERT' /
&OBST XB=-3.00,-2.00,49.03,50.03,435.22,439.11 SURF_ID='INERT' /
&OBST XB=-2.00,-1.00,49.03,50.03,435.22,439.08 SURF_ID='INERT' /
&OBST XB=-1.00,0.00,49.03,50.03,435.22,439.03 SURF_ID='INERT' /
&OBST XB=0.00,1.00,49.03,50.03,435.22,438.99 SURF_ID='INERT' /
&OBST XB=1.00,2.00,49.03,50.03,435.22,438.95 SURF_ID='INERT' /
&OBST XB=2.00,3.00,49.03,50.03,435.22,438.92 SURF_ID='INERT' /
&OBST XB=3.00,4.00,49.03,50.03,435.22,438.91 SURF_ID='INERT' /
&OBST XB=4.00,5.00,49.03,50.03,435.22,438.90 SURF_ID='INERT' /
&OBST XB=5.00,6.00,49.03,50.03,435.22,438.94 SURF_ID='INERT' /
&OBST XB=6.00,7.00,49.03,50.03,435.22,439.09 SURF_ID='INERT' /
&OBST XB=7.00,8.00,49.03,50.03,435.22,439.47 SURF_ID='INERT' /
&OBST XB=8.00,9.00,49.03,50.03,435.22,439.62 SURF_ID='INERT' /
&OBST XB=9.00,10.00,49.03,50.03,435.22,439.78 SURF_ID='INERT' /
&OBST XB=10.00,11.00,49.03,50.03,435.22,439.82 SURF_ID='INERT' /
&OBST XB=11.00,12.00,49.03,50.03,435.22,441.39 SURF_ID='INERT' /
&OBST XB=12.00,13.00,49.03,50.03,435.22,445.87 SURF_ID='INERT' /
&OBST XB=13.00,14.00,49.03,50.03,435.22,443.92 SURF_ID='INERT' /
&OBST XB=14.00,15.00,49.03,50.03,435.22,443.61 SURF_ID='INERT' /
&OBST XB=15.00,16.00,49.03,50.03,435.22,443.63 SURF_ID='INERT' /
&OBST XB=16.00,17.00,49.03,50.03,435.22,443.64 SURF_ID='INERT' /
&OBST XB=17.00,18.00,49.03,50.03,435.22,443.65 SURF_ID='INERT' /
&OBST XB=18.00,19.00,49.03,50.03,435.22,443.67 SURF_ID='INERT' /
&OBST XB=19.00,20.00,49.03,50.03,435.22,443.68 SURF_ID='INERT' /
&OBST XB=20.00,21.00,49.03,50.03,435.22,443.69 SURF_ID='INERT' /
&OBST XB=21.00,22.00,49.03,50.03,435.22,443.70 SURF_ID='INERT' /
&OBST XB=22.00,23.00,49.03,50.03,435.22,443.72 SURF_ID='INERT' /