! Generated by qgis2fds 1.0.2 on QGIS 3.28.8-Firenze
! QGIS file: cern_meyrin.qgs
! Date: Thu, 31 Aug 2023, 15:57:00

Selected UTM CRS: WGS 84 / UTM zone 32N
Domain origin: 272434.2E 5124167.9N
  <http://www.openstreetmap.org/?mlat=46.232977774598545&mlon=6.048633882097182&zoom=12>
Domain extent: 272355.7-272512.7E 5124115.4-5124219.4N

Desired resolution: 1.0m
DEM layer: dem_layer
Landuse layer: none
Landuse type file: none
Fire layer: none
FDS DEVCs layer: FIXME
Wind file: none

&HEAD CHID='test_geom' TITLE='Description of test_geom' /

MISC LEVEL_SET_MODE parameter
 1: Wind not affected by the terrain. No fire.
 2: Wind field established over the terrain, then frozen. No fire.
 3: Wind field following the terrain, no fire.
 4: Wind and fire fully-coupled.

&MISC ORIGIN_LAT=46.2329778
      ORIGIN_LON=6.0486339
      NORTH_BEARING=0.
      TERRAIN_IMAGE='test_geom_tex.png'
      LEVEL_SET_MODE=1 
      THICKEN_OBSTRUCTIONS=T /

&TIME T_BEGIN=0.0, T_END=0.0 /

Example REAC, used when LEVEL_SET_MODE=4
_REAC ID='Wood' SOOT_YIELD=0.005 O=2.5 C=3.4 H=6.2
      HEAT_OF_COMBUSTION=17700. /

Domain and its boundary conditions
2 · 2 meshes of 77.5m · 51.0m · 24.2m size and 758880 cells each
&MULT ID='Meshes'
      DX=77.50 I_LOWER=0 I_UPPER=1
      DY=51.00 J_LOWER=0 J_UPPER=1 /
&MESH IJK=155,102,48 MULT_ID='Meshes'
      XB=-77.50,0.00,-51.47,-0.47,435.22,459.41 /
&VENT ID='Domain BC XMIN' DB='XMIN' SURF_ID='OPEN' /
&VENT ID='Domain BC XMAX' DB='XMAX' SURF_ID='OPEN' /
&VENT ID='Domain BC YMIN' DB='YMIN' SURF_ID='OPEN' /
&VENT ID='Domain BC YMAX' DB='YMAX' SURF_ID='OPEN' /
&VENT ID='Domain BC ZMAX' DB='ZMAX' SURF_ID='OPEN' /

Wind rose at domain origin
&DEVC ID='Origin_UV' XYZ=0.,0.,459.31 QUANTITY='U-VELOCITY' /
&DEVC ID='Origin_VV' XYZ=0.,0.,459.31 QUANTITY='V-VELOCITY' /
&DEVC ID='Origin_WV' XYZ=0.,0.,459.31 QUANTITY='W-VELOCITY' /

Landuse boundary conditions
none

Output quantities
&SLCF AGL_SLICE=5. QUANTITY='LEVEL SET VALUE' /
&SLCF AGL_SLICE=5. QUANTITY='TEMPERATURE' VECTOR=T /
&SLCF PBX=0.00 QUANTITY='TEMPERATURE' VECTOR=T /
&SLCF PBY=0.00 QUANTITY='TEMPERATURE' VECTOR=T /

Wind
&WIND SPEED=1., RAMP_SPEED_T='ws', RAMP_DIRECTION_T='wd' /
! Example ramps for wind speed and direction
&RAMP ID='ws', T=   0, F= 10. /
&RAMP ID='ws', T= 600, F= 10. /
&RAMP ID='ws', T=1200, F= 20. /
&RAMP ID='wd', T=   0, F=315. /
&RAMP ID='wd', T= 600, F=270. /
&RAMP ID='wd', T=1200, F=360. /

Terrain (16854 verts, 33180 faces)
&GEOM ID='Terrain'
      SURF_ID='INERT'
      BINARY_FILE='test_geom_terrain.bingeom'
      IS_TERRAIN=T EXTEND_TERRAIN=F /

&TAIL /
