! Generated by qgis2fds 1.0.2 on QGIS 3.28.8-Firenze
! QGIS file: golden_gate.qgs
! Date: Wed, 30 Aug 2023, 17:01:40

Selected UTM CRS: WGS 84 / UTM zone 10N
Domain origin: 545218.5E 4187150.2N
  <http://www.openstreetmap.org/?mlat=37.83065223693845&mlon=-122.4861488342285&zoom=12>
Domain extent: 544696.7-545746.7E 4186808.0-4187488.0N

Desired resolution: 10.0m
DEM layer: US_DEM2016_local
Landuse layer: none
Landuse type file: none
Fire layer: none
FDS DEVCs layer: FIXME
Wind file: none

&HEAD CHID='test_obst_min' TITLE='Description of test_obst_min' /

MISC LEVEL_SET_MODE parameter
 1: Wind not affected by the terrain. No fire.
 2: Wind field established over the terrain, then frozen. No fire.
 3: Wind field following the terrain, no fire.
 4: Wind and fire fully-coupled.

&MISC ORIGIN_LAT=37.8306522
      ORIGIN_LON=-122.4861488
      NORTH_BEARING=0.
      TERRAIN_IMAGE='test_obst_min_tex.png'
      LEVEL_SET_MODE=1 
      THICKEN_OBSTRUCTIONS=T /

&TIME T_BEGIN=0.0, T_END=0.0 /

Example REAC, used when LEVEL_SET_MODE=4
_REAC ID='Wood' SOOT_YIELD=0.005 O=2.5 C=3.4 H=6.2
      HEAT_OF_COMBUSTION=17700. /

Domain and its boundary conditions
2 · 2 meshes of 524.0m · 339.0m · 318.0m size and 56576 cells each
&MULT ID='Meshes'
      DX=524.00 I_LOWER=0 I_UPPER=1
      DY=339.00 J_LOWER=0 J_UPPER=1 /
&MESH IJK=52,34,32 MULT_ID='Meshes'
      XB=-520.81,3.19,-341.13,-2.13,9.00,327.00 /
&VENT ID='Domain BC XMIN' DB='XMIN' SURF_ID='OPEN' /
&VENT ID='Domain BC XMAX' DB='XMAX' SURF_ID='OPEN' /
&VENT ID='Domain BC YMIN' DB='YMIN' SURF_ID='OPEN' /
&VENT ID='Domain BC YMAX' DB='YMAX' SURF_ID='OPEN' /
&VENT ID='Domain BC ZMAX' DB='ZMAX' SURF_ID='OPEN' /

Wind rose at domain origin
&DEVC ID='Origin_UV' XYZ=0.,0.,326.90 QUANTITY='U-VELOCITY' /
&DEVC ID='Origin_VV' XYZ=0.,0.,326.90 QUANTITY='V-VELOCITY' /
&DEVC ID='Origin_WV' XYZ=0.,0.,326.90 QUANTITY='W-VELOCITY' /

Landuse boundary conditions
none

Output quantities
&SLCF AGL_SLICE=5. QUANTITY='LEVEL SET VALUE' /
&SLCF AGL_SLICE=5. QUANTITY='TEMPERATURE' VECTOR=T /
&SLCF PBX=0.00 QUANTITY='TEMPERATURE' VECTOR=T /
&SLCF PBY=0.00 QUANTITY='TEMPERATURE' VECTOR=T /

Wind
&WIND SPEED=1., RAMP_SPEED_T='ws', RAMP_DIRECTION_T='wd' /
! Example ramps for wind speed and direction
&RAMP ID='ws', T=   0, F= 10. /
&RAMP ID='ws', T= 600, F= 10. /
&RAMP ID='ws', T=1200, F= 20. /
&RAMP ID='wd', T=   0, F=315. /
&RAMP ID='wd', T= 600, F=270. /
&RAMP ID='wd', T=1200, F=360. /

Terrain (7314 OBSTs)
&OBST XB=-526.81,-516.81,332.87,342.87,9.00,188.00 SURF_ID='INERT' /
&OBST XB=-516.81,-506.81,332.87,342.87,9.00,191.00 SURF_ID='INERT' /
&OBST XB=-506.81,-496.81,332.87,342.87,9.00,194.00 SURF_ID='INERT' /
&OBST XB=-496.81,-486.81,332.87,342.87,9.00,198.00 SURF_ID='INERT' /
&OBST XB=-486.81,-476.81,332.87,342.87,9.00,202.00 SURF_ID='INERT' /
&OBST XB=-476.81,-466.81,332.87,342.87,9.00,205.00 SURF_ID='INERT' /
&OBST XB=-466.81,-456.81,332.87,342.87,9.00,208.00 SURF_ID='INERT' /
&OBST XB=-456.81,-446.81,332.87,342.87,9.00,209.00 SURF_ID='INERT' /
&OBST XB=-446.81,-436.81,332.87,342.87,9.00,210.00 SURF_ID='INERT' /
&OBST XB=-436.81,-426.81,332.87,342.87,9.00,211.00 SURF_ID='INERT' /
&OBST XB=-426.81,-416.81,332.87,342.87,9.00,210.00 SURF_ID='INERT' /
&OBST XB=-416.81,-406.81,332.87,342.87,9.00,210.00 SURF_ID='INERT' /
&OBST XB=-406.81,-396.81,332.87,342.87,9.00,209.00 SURF_ID='INERT' /
&OBST XB=-396.81,-386.81,332.87,342.87,9.00,208.00 SURF_ID='INERT' /
&OBST XB=-386.81,-376.81,332.87,342.87,9.00,206.00 SURF_ID='INERT' /
&OBST XB=-376.81,-366.81,332.87,342.87,9.00,205.00 SURF_ID='INERT' /
&OBST XB=-366.81,-356.81,332.87,342.87,9.00,204.00 SURF_ID='INERT' /
&OBST XB=-356.81,-346.81,332.87,342.87,9.00,205.00 SURF_ID='INERT' /
&OBST XB=-346.81,-336.81,332.87,342.87,9.00,205.00 SURF_ID='INERT' /
&OBST XB=-336.81,-326.81,332.87,342.87,9.00,207.00 SURF_ID='INERT' /
&OBST XB=-326.81,-316.81,332.87,342.87,9.00,209.00 SURF_ID='INERT' /
&OBST XB=-316.81,-306.81,332.87,342.87,9.00,211.00 SURF_ID='INERT' /
&OBST XB=-306.81,-296.81,332.87,342.87,9.00,212.00 SURF_ID='INERT' /
&OBST XB=-296.81,-286.81,332.87,342.87,9.00,211.00 SURF_ID='INERT' /
&OBST XB=-286.81,-276.81,332.87,342.87,9.00,210.00 SURF_ID='INERT' /
&OBST XB=-276.81,-266.81,332.87,342.87,9.00,209.00 SURF_ID='INERT' /
&OBST XB=-266.81,-256.81,332.87,342.87,9.00,207.00 SURF_ID='INERT' /
&OBST XB=-256.81,-246.81,332.87,342.87,9.00,204.00 SURF_ID='INERT' /
&OBST XB=-246.81,-236.81,332.87,342.87,9.00,203.00 SURF_ID='INERT' /
&OBST XB=-236.81,-226.81,332.87,342.87,9.00,202.00 SURF_ID='INERT' /
&OBST XB=-226.81,-216.81,332.87,342.87,9.00,202.00 SURF_ID='INERT' /
&OBST XB=-216.81,-206.81,332.87,342.87,9.00,202.00 SURF_ID='INERT' /
&OBST XB=-206.81,-196.81,332.87,342.87,9.00,204.00 SURF_ID='INERT' /
&OBST XB=-196.81,-186.81,332.87,342.87,9.00,206.00 SURF_ID='INERT' /
&OBST XB=-186.81,-176.81,332.87,342.87,9.00,209.00 SURF_ID='INERT' /
&OBST XB=-176.81,-166.81,332.87,342.87,9.00,213.00 SURF_ID='INERT' /
&OBST XB=-166.81,-156.81,332.87,342.87,9.00,217.00 SURF_ID='INERT' /
&OBST XB=-156.81,-146.81,332.87,342.87,9.00,221.00 SURF_ID='INERT' /
&OBST XB=-146.81,-136.81,332.87,342.87,9.00,224.00 SURF_ID='INERT' /
&OBST XB=-136.81,-126.81,332.87,342.87,9.00,225.00 SURF_ID='INERT' /
&OBST XB=-126.81,-116.81,332.87,342.87,9.00,227.00 SURF_ID='INERT' /
&OBST XB=-116.81,-106.81,332.87,342.87,9.00,227.00 SURF_ID='INERT' /
&OBST XB=-106.81,-96.81,332.87,342.87,9.00,225.00 SURF_ID='INERT' /
&OBST XB=-96.81,-86.81,332.87,342.87,9.00,223.00 SURF_ID='INERT' /
&OBST XB=-86.81,-76.81,332.87,342.87,9.00,220.00 SURF_ID='INERT' /
&OBST XB=-76.81,-66.81,332.87,342.87,9.00,216.00 SURF_ID='INERT' /
&OBST XB=-66.81,-56.81,332.87,342.87,9.00,212.00 SURF_ID='INERT' /
&OBST XB=-56.81,-46.81,332.87,342.87,9.00,207.00 SURF_ID='INERT' /
&OBST XB=-46.81,-36.81,332.87,342.87,9.00,202.00 SURF_ID='INERT' /
&OBST XB=-36.81,-26.81,332.87,342.87,9.00,197.00 SURF_ID='INERT' /
&OBST XB=-26.81,-16.81,332.87,342.87,9.00,192.00 SURF_ID='INERT' /
&OBST XB=-16.81,-6.81,332.87,342.87,9.00,187.00 SURF_ID='INERT' /
&OBST XB=-6.81,3.19,332.87,342.87,9.00,182.00 SURF_ID='INERT' /
&OBST XB=3.19,13.19,332.87,342.87,9.00,177.00 SURF_ID='INERT' /
&OBST XB=13.19,23.19,332.87,342.87,9.00,172.00 SURF_ID='INERT' /
&OBST XB=23.19,33.19,332.87,342.87,9.00,167.00 SURF_ID='INERT' /
&OBST XB=33.19,43.19,332.87,342.87,9.00,162.00 SURF_ID='INERT' /
&OBST XB=43.19,53.19,332.87,342.87,9.00,157.00 SURF_ID='INERT' /
&OBST XB=53.19,63.19,332.87,342.87,9.00,153.00 SURF_ID='INERT' /
&OBST XB=63.19,73.19,332.87,342.87,9.00,149.00 SURF_ID='INERT' /
&OBST XB=73.19,83.19,332.87,342.87,9.00,145.00 SURF_ID='INERT' /
&OBST XB=83.19,93.19,332.87,342.87,9.00,141.00 SURF_ID='INERT' /
&OBST XB=93.19,103.19,332.87,342.87,9.00,138.00 SURF_ID='INERT' /
&OBST XB=103.19,113.19,332.87,342.87,9.00,134.00 SURF_ID='INERT' /
&OBST XB=113.19,123.19,332.87,342.87,9.00,131.00 SURF_ID='INERT' /
&OBST XB=123.19,133.19,332.87,342.87,9.00,128.00 SURF_ID='INERT' /
&OBST XB=133.19,143.19,332.87,342.87,9.00,124.00 SURF_ID='INERT' /
&OBST XB=143.19,153.19,332.87,342.87,9.00,120.00 SURF_ID='INERT' /
&OBST XB=153.19,163.19,332.87,342.87,9.00,116.00 SURF_ID='INERT' /
&OBST XB=163.19,173.19,332.87,342.87,9.00,111.00 SURF_ID='INERT' /
&OBST XB=173.19,183.19,332.87,342.87,9.00,107.00 SURF_ID='INERT' /
&OBST XB=183.19,193.19,332.87,342.87,9.00,103.00 SURF_ID='INERT' /
&OBST XB=193.19,203.19,332.87,342.87,9.00,99.00 SURF_ID='INERT' /
&OBST XB=203.19,213.19,332.87,342.87,9.00,95.00 SURF_ID='INERT' /
&OBST XB=213.19,223.19,332.87,342.87,9.00,91.00 SURF_ID='INERT' /
&OBST XB=223.19,233.19,332.87,342.87,9.00,88.00 SURF_ID='INERT' /
&OBST XB=233.19,243.19,332.87,342.87,9.00,86.00 SURF_ID='INERT' /
&OBST XB=243.19,253.19,332.87,342.87,9.00,85.00 SURF_ID='INERT' /
&OBST XB=253.19,263.19,332.87,342.87,9.00,84.00 SURF_ID='INERT' /
&OBST XB=263.19,273.19,332.87,342.87,9.00,83.00 SURF_ID='INERT' /
&OBST XB=273.19,283.19,332.87,342.87,9.00,82.00 SURF_ID='INERT' /
&OBST XB=283.19,293.19,332.87,342.87,9.00,80.00 SURF_ID='INERT' /
&OBST XB=293.19,303.19,332.87,342.87,9.00,79.00 SURF_ID='INERT' /
&OBST XB=303.19,313.19,332.87,342.87,9.00,77.00 SURF_ID='INERT' /
&OBST XB=313.19,323.19,332.87,342.87,9.00,76.00 SURF_ID='INERT' /
&OBST XB=323.19,333.19,332.87,342.87,9.00,74.00 SURF_ID='INERT' /
&OBST XB=333.19,343.19,332.87,342.87,9.00,72.00 SURF_ID='INERT' /
&OBST XB=343.19,353.19,332.87,342.87,9.00,70.00 SURF_ID='INERT' /
&OBST XB=353.19,363.19,332.87,342.87,9.00,67.00 SURF_ID='INERT' /
&OBST XB=363.19,373.19,332.87,342.87,9.00,66.00 SURF_ID='INERT' /
&OBST XB=373.19,383.19,332.87,342.87,9.00,64.00 SURF_ID='INERT' /
&OBST XB=383.19,393.19,332.87,342.87,9.00,63.00 SURF_ID='INERT' /
&OBST XB=393.19,403.19,332.87,342.87,9.00,64.00 SURF_ID='INERT' /
&OBST XB=403.19,413.19,332.87,342.87,9.00,64.00 SURF_ID='INERT' /
&OBST XB=413.19,423.19,332.87,342.87,9.00,65.00 SURF_ID='INERT' /
&OBST XB=423.19,433.19,332.87,342.87,9.00,65.00 SURF_ID='INERT' /
&OBST XB=433.19,443.19,332.87,342.87,9.00,65.00 SURF_ID='INERT' /
&OBST XB=443.19,453.19,332.87,342.87,9.00,65.00 SURF_ID='INERT' /
&OBST XB=453.19,463.19,332.87,342.87,9.00,65.00 SURF_ID='INERT' /
&OBST XB=463.19,473.19,332.87,342.87,9.00,64.00 SURF_ID='INERT' /
&OBST XB=473.19,483.19,332.87,342.87,9.00,63.00 SURF_ID='INERT' /
&OBST XB=483.19,493.19,332.87,342.87,9.00,63.00 SURF_ID='INERT' /
&OBST XB=493.19,503.19,332.87,342.87,9.00,62.00 SURF_ID='INERT' /
&OBST XB=503.19,513.19,332.87,342.87,9.00,61.00 SURF_ID='INERT' /
&OBST XB=513.19,523.19,332.87,342.87,9.00,60.00 SURF_ID='INERT' /
&OBST XB=523.19,533.19,332.87,342.87,9.00,58.00 SURF_ID='INERT' /
&OBST XB=-526.81,-516.81,322.87,332.87,9.00,183.00 SURF_ID='INERT' /
&OBST XB=-516.81,-506.81,322.87,332.87,9.00,187.00 SURF_ID='INERT' /
&OBST XB=-506.81,-496.81,322.87,332.87,9.00,190.00 SURF_ID='INERT' /
&OBST XB=-496.81,-486.81,322.87,332.87,9.00,194.00 SURF_ID='INERT' /
&OBST XB=-486.81,-476.81,322.87,332.87,9.00,198.00 SURF_ID='INERT' /
&OBST XB=-476.81,-466.81,322.87,332.87,9.00,201.00 SURF_ID='INERT' /
&OBST XB=-466.81,-456.81,322.87,332.87,9.00,204.00 SURF_ID='INERT' /
&OBST XB=-456.81,-446.81,322.87,332.87,9.00,205.00 SURF_ID='INERT' /
&OBST XB=-446.81,-436.81,322.87,332.87,9.00,206.00 SURF_ID='INERT' /
&OBST XB=-436.81,-426.81,322.87,332.87,9.00,206.00 SURF_ID='INERT' /
&OBST XB=-426.81,-416.81,322.87,332.87,9.00,206.00 SURF_ID='INERT' /
&OBST XB=-416.81,-406.81,322.87,332.87,9.00,205.00 SURF_ID='INERT' /
&OBST XB=-406.81,-396.81,322.87,332.87,9.00,203.00 SURF_ID='INERT' /
&OBST XB=-396.81,-386.81,322.87,332.87,9.00,202.00 SURF_ID='INERT' /
&OBST XB=-386.81,-376.81,322.87,332.87,9.00,200.00 SURF_ID='INERT' /
&OBST XB=-376.81,-366.81,322.87,332.87,9.00,199.00 SURF_ID='INERT' /
&OBST XB=-366.81,-356.81,322.87,332.87,9.00,199.00 SURF_ID='INERT' /
&OBST XB=-356.81,-346.81,322.87,332.87,9.00,199.00 SURF_ID='INERT' /
&OBST XB=-346.81,-336.81,322.87,332.87,9.00,201.00 SURF_ID='INERT' /
&OBST XB=-336.81,-326.81,322.87,332.87,9.00,203.00 SURF_ID='INERT' /
&OBST XB=-326.81,-316.81,322.87,332.87,9.00,205.00 SURF_ID='INERT' /
&OBST XB=-316.81,-306.81,322.87,332.87,9.00,207.00 SURF_ID='INERT' /
&OBST XB=-306.81,-296.81,322.87,332.87,9.00,208.00 SURF_ID='INERT' /
&OBST XB=-296.81,-286.81,322.87,332.87,9.00,207.00 SURF_ID='INERT' /
&OBST XB=-286.81,-276.81,322.87,332.87,9.00,205.00 SURF_ID='INERT' /
&OBST XB=-276.81,-266.81,322.87,332.87,9.00,204.00 SURF_ID='INERT' /
&OBST XB=-266.81,-256.81,322.87,332.87,9.00,202.00 SURF_ID='INERT' /
&OBST XB=-256.81,-246.81,322.87,332.87,9.00,199.00 SURF_ID='INERT' /
&OBST XB=-246.81,-236.81,322.87,332.87,9.00,197.00 SURF_ID='INERT' /
&OBST XB=-236.81,-226.81,322.87,332.87,9.00,197.00 SURF_ID='INERT' /
&OBST XB=-226.81,-216.81,322.87,332.87,9.00,197.00 SURF_ID='INERT' /
&OBST XB=-216.81,-206.81,322.87,332.87,9.00,197.00 SURF_ID='INERT' /
&OBST XB=-206.81,-196.81,322.87,332.87,9.00,199.00 SURF_ID='INERT' /
&OBST XB=-196.81,-186.81,322.87,332.87,9.00,202.00 SURF_ID='INERT' /
&OBST XB=-186.81,-176.81,322.87,332.87,9.00,205.00 SURF_ID='INERT' /
&OBST XB=-176.81,-166.81,322.87,332.87,9.00,209.00 SURF_ID='INERT' /
&OBST XB=-166.81,-156.81,322.87,332.87,9.00,213.00 SURF_ID='INERT' /
&OBST XB=-156.81,-146.81,322.87,332.87,9.00,218.00 SURF_ID='INERT' /
&OBST XB=-146.81,-136.81,322.87,332.87,9.00,221.00 SURF_ID='INERT' /
&OBST XB=-136.81,-126.81,322.87,332.87,9.00,223.00 SURF_ID='INERT' /
&OBST XB=-126.81,-116.81,322.87,332.87,9.00,225.00 SURF_ID='INERT' /
&OBST XB=-116.81,-106.81,322.87,332.87,9.00,226.00 SURF_ID='INERT' /
&OBST XB=-106.81,-96.81,322.87,332.87,9.00,225.00 SURF_ID='INERT' /
&OBST XB=-96.81,-86.81,322.87,332.87,9.00,223.00 SURF_ID='INERT' /
&OBST XB=-86.81,-76.81,322.87,332.87,9.00,222.00 SURF_ID='INERT' /
&OBST XB=-76.81,-66.81,322.87,332.87,9.00,218.00 SURF_ID='INERT' /
&OBST XB=-66.81,-56.81,322.87,332.87,9.00,214.00 SURF_ID='INERT' /
&OBST XB=-56.81,-46.81,322.87,332.87,9.00,210.00 SURF_ID='INERT' /
&OBST XB=-46.81,-36.81,322.87,332.87,9.00,205.00 SURF_ID='INERT' /
&OBST XB=-36.81,-26.81,322.87,332.87,9.00,201.00 SURF_ID='INERT' /
&OBST XB=-26.81,-16.81,322.87,332.87,9.00,196.00 SURF_ID='INERT' /
&OBST XB=-16.81,-6.81,322.87,332.87,9.00,191.00 SURF_ID='INERT' /
&OBST XB=-6.81,3.19,322.87,332.87,9.00,186.00 SURF_ID='INERT' /
&OBST XB=3.19,13.19,322.87,332.87,9.00,180.00 SURF_ID='INERT' /
&OBST XB=13.19,23.19,322.87,332.87,9.00,175.00 SURF_ID='INERT' /
&OBST XB=23.19,33.19,322.87,332.87,9.00,170.00 SURF_ID='INERT' /
&OBST XB=33.19,43.19,322.87,332.87,9.00,165.00 SURF_ID='INERT' /
&OBST XB=43.19,53.19,322.87,332.87,9.00,160.00 SURF_ID='INERT' /
&OBST XB=53.19,63.19,322.87,332.87,9.00,156.00 SURF_ID='INERT' /
&OBST XB=63.19,73.19,322.87,332.87,9.00,152.00 SURF_ID='INERT' /
&OBST XB=73.19,83.19,322.87,332.87,9.00,148.00 SURF_ID='INERT' /
&OBST XB=83.19,93.19,322.87,332.87,9.00,144.00 SURF_ID='INERT' /
&OBST XB=93.19,103.19,322.87,332.87,9.00,141.00 SURF_ID='INERT' /
&OBST XB=103.19,113.19,322.87,332.87,9.00,137.00 SURF_ID='INERT' /
&OBST XB=113.19,123.19,322.87,332.87,9.00,133.00 SURF_ID='INERT' /
&OBST XB=123.19,133.19,322.87,332.87,9.00,130.00 SURF_ID='INERT' /
&OBST XB=133.19,143.19,322.87,332.87,9.00,126.00 SURF_ID='INERT' /
&OBST XB=143.19,153.19,322.87,332.87,9.00,122.00 SURF_ID='INERT' /
&OBST XB=153.19,163.19,322.87,332.87,9.00,117.00 SURF_ID='INERT' /
&OBST XB=163.19,173.19,322.87,332.87,9.00,113.00 SURF_ID='INERT' /
&OBST XB=173.19,183.19,322.87,332.87,9.00,109.00 SURF_ID='INERT' /
&OBST XB=183.19,193.19,322.87,332.87,9.00,105.00 SURF_ID='INERT' /
&OBST XB=193.19,203.19,322.87,332.87,9.00,101.00 SURF_ID='INERT' /
&OBST XB=203.19,213.19,322.87,332.87,9.00,98.00 SURF_ID='INERT' /
&OBST XB=213.19,223.19,322.87,332.87,9.00,94.00 SURF_ID='INERT' /
&OBST XB=223.19,233.19,322.87,332.87,9.00,90.00 SURF_ID='INERT' /
&OBST XB=233.19,243.19,322.87,332.87,9.00,87.00 SURF_ID='INERT' /
&OBST XB=243.19,253.19,322.87,332.87,9.00,86.00 SURF_ID='INERT' /
&OBST XB=253.19,263.19,322.87,332.87,9.00,85.00 SURF_ID='INERT' /
&OBST XB=263.19,273.19,322.87,332.87,9.00,84.00 SURF_ID='INERT' /
&OBST XB=273.19,283.19,322.87,332.87,9.00,82.00 SURF_ID='INERT' /
&OBST XB=283.19,293.19,322.87,332.87,9.00,81.00 SURF_ID='INERT' /
&OBST XB=293.19,303.19,322.87,332.87,9.00,80.00 SURF_ID='INERT' /
&OBST XB=303.19,313.19,322.87,332.87,9.00,78.00 SURF_ID='INERT' /
&OBST XB=313.19,323.19,322.87,332.87,9.00,77.00 SURF_ID='INERT' /
&OBST XB=323.19,333.19,322.87,332.87,9.00,76.00 SURF_ID='INERT' /
&OBST XB=333.19,343.19,322.87,332.87,9.00,74.00 SURF_ID='INERT' /
&OBST XB=343.19,353.19,322.87,332.87,9.00,72.00 SURF_ID='INERT' /
&OBST XB=353.19,363.19,322.87,332.87,9.00,70.00 SURF_ID='INERT' /
&OBST XB=363.19,373.19,322.87,332.87,9.00,69.00 SURF_ID='INERT' /
&OBST XB=373.19,383.19,322.87,332.87,9.00,68.00 SURF_ID='INERT' /
&OBST XB=383.19,393.19,322.87,332.87,9.00,68.00 SURF_ID='INERT' /
&OBST XB=393.19,403.19,322.87,332.87,9.00,68.00 SURF_ID='INERT' /
&OBST XB=403.19,413.19,322.87,332.87,9.00,69.00 SURF_ID='INERT' /
&OBST XB=413.19,423.19,322.87,332.87,9.00,70.00 SURF_ID='INERT' /
&OBST XB=423.19,433.19,322.87,332.87,9.00,70.00 SURF_ID='INERT' /
&OBST XB=433.19,443.19,322.87,332.87,9.00,69.00 SURF_ID='INERT' /
&OBST XB=443.19,453.19,322.87,332.87,9.00,69.00 SURF_ID='INERT' /
&OBST XB=453.19,463.19,322.87,332.87,9.00,68.00 SURF_ID='INERT' /
&OBST XB=463.19,473.19,322.87,332.87,9.00,68.00 SURF_ID='INERT' /
&OBST XB=473.19,483.19,322.87,332.87,9.00,68.00 SURF_ID='INERT' /
&OBST XB=483.19,493.19,322.87,332.87,9.00,68.00 SURF_ID='INERT' /
&OBST XB=493.19,503.19,322.87,332.87,9.00,67.00 SURF_ID='INERT' /
&OBST XB=503.19,513.19,322.87,332.87,9.00,66.00 SURF_ID='INERT' /
&OBST XB=513.19,523.19,322.87,332.87,9.00,65.00 SURF_ID='INERT' /
&OBST XB=523.19,533.19,322.87,332.87,9.00,64.00 SURF_ID='INERT' /
&OBST XB=-526.81,-516.81,312.87,322.87,9.00,178.00 SURF_ID='INERT' /
&OBST XB=-516.81,-506.81,312.87,322.87,9.00,182.00 SURF_ID='INERT' /
&OBST XB=-506.81,-496.81,312.87,322.87,9.00,186.00 SURF_ID='INERT' /
&OBST XB=-496.81,-486.81,312.87,322.87,9.00,190.00 SURF_ID='INERT' /
&OBST XB=-486.81,-476.81,312.87,322.87,9.00,194.00 SURF_ID='INERT' /
&OBST XB=-476.81,-466.81,312.87,322.87,9.00,197.00 SURF_ID='INERT' /
&OBST XB=-466.81,-456.81,312.87,322.87,9.00,200.00 SURF_ID='INERT' /
&OBST XB=-456.81,-446.81,312.87,322.87,9.00,202.00 SURF_ID='INERT' /
&OBST XB=-446.81,-436.81,312.87,322.87,9.00,202.00 SURF_ID='INERT' /
&OBST XB=-436.81,-426.81,312.87,322.87,9.00,202.00 SURF_ID='INERT' /
&OBST XB=-426.81,-416.81,312.87,322.87,9.00,201.00 SURF_ID='INERT' /
&OBST XB=-416.81,-406.81,312.87,322.87,9.00,200.00 SURF_ID='INERT' /
&OBST XB=-406.81,-396.81,312.87,322.87,9.00,198.00 SURF_ID='INERT' /
&OBST XB=-396.81,-386.81,312.87,322.87,9.00,196.00 SURF_ID='INERT' /
&OBST XB=-386.81,-376.81,312.87,322.87,9.00,194.00 SURF_ID='INERT' /
&OBST XB=-376.81,-366.81,312.87,322.87,9.00,193.00 SURF_ID='INERT' /
&OBST XB=-366.81,-356.81,312.87,322.87,9.00,192.00 SURF_ID='INERT' /
&OBST XB=-356.81,-346.81,312.87,322.87,9.00,194.00 SURF_ID='INERT' /
&OBST XB=-346.81,-336.81,312.87,322.87,9.00,196.00 SURF_ID='INERT' /
&OBST XB=-336.81,-326.81,312.87,322.87,9.00,199.00 SURF_ID='INERT' /
&OBST XB=-326.81,-316.81,312.87,322.87,9.00,200.00 SURF_ID='INERT' /
&OBST XB=-316.81,-306.81,312.87,322.87,9.00,202.00 SURF_ID='INERT' /
&OBST XB=-306.81,-296.81,312.87,322.87,9.00,203.00 SURF_ID='INERT' /
&OBST XB=-296.81,-286.81,312.87,322.87,9.00,202.00 SURF_ID='INERT' /
&OBST XB=-286.81,-276.81,312.87,322.87,9.00,201.00 SURF_ID='INERT' /
&OBST XB=-276.81,-266.81,312.87,322.87,9.00,199.00 SURF_ID='INERT' /
&OBST XB=-266.81,-256.81,312.87,322.87,9.00,197.00 SURF_ID='INERT' /
&OBST XB=-256.81,-246.81,312.87,322.87,9.00,194.00 SURF_ID='INERT' /
&OBST XB=-246.81,-236.81,312.87,322.87,9.00,192.00 SURF_ID='INERT' /
&OBST XB=-236.81,-226.81,312.87,322.87,9.00,191.00 SURF_ID='INERT' /
&OBST XB=-226.81,-216.81,312.87,322.87,9.00,192.00 SURF_ID='INERT' /
&OBST XB=-216.81,-206.81,312.87,322.87,9.00,192.00 SURF_ID='INERT' /
&OBST XB=-206.81,-196.81,312.87,322.87,9.00,194.00 SURF_ID='INERT' /
&OBST XB=-196.81,-186.81,312.87,322.87,9.00,197.00 SURF_ID='INERT' /
&OBST XB=-186.81,-176.81,312.87,322.87,9.00,201.00 SURF_ID='INERT' /
&OBST XB=-176.81,-166.81,312.87,322.87,9.00,205.00 SURF_ID='INERT' /
&OBST XB=-166.81,-156.81,312.87,322.87,9.00,209.00 SURF_ID='INERT' /
&OBST XB=-156.81,-146.81,312.87,322.87,9.00,214.00 SURF_ID='INERT' /
&OBST XB=-146.81,-136.81,312.87,322.87,9.00,218.00 SURF_ID='INERT' /
&OBST XB=-136.81,-126.81,312.87,322.87,9.00,220.00 SURF_ID='INERT' /
&OBST XB=-126.81,-116.81,312.87,322.87,9.00,222.00 SURF_ID='INERT' /
&OBST XB=-116.81,-106.81,312.87,322.87,9.00,225.00 SURF_ID='INERT' /
&OBST XB=-106.81,-96.81,312.87,322.87,9.00,224.00 SURF_ID='INERT' /
&OBST XB=-96.81,-86.81,312.87,322.87,9.00,223.00 SURF_ID='INERT' /
&OBST XB=-86.81,-76.81,312.87,322.87,9.00,223.00 SURF_ID='INERT' /
&OBST XB=-76.81,-66.81,312.87,322.87,9.00,220.00 SURF_ID='INERT' /
&OBST XB=-66.81,-56.81,312.87,322.87,9.00,216.00 SURF_ID='INERT' /
&OBST XB=-56.81,-46.81,312.87,322.87,9.00,212.00 SURF_ID='INERT' /
&OBST XB=-46.81,-36.81,312.87,322.87,9.00,208.00 SURF_ID='INERT' /
&OBST XB=-36.81,-26.81,312.87,322.87,9.00,204.00 SURF_ID='INERT' /
&OBST XB=-26.81,-16.81,312.87,322.87,9.00,199.00 SURF_ID='INERT' /
&OBST XB=-16.81,-6.81,312.87,322.87,9.00,194.00 SURF_ID='INERT' /
&OBST XB=-6.81,3.19,312.87,322.87,9.00,189.00 SURF_ID='INERT' /
&OBST XB=3.19,13.19,312.87,322.87,9.00,183.00 SURF_ID='INERT' /
&OBST XB=13.19,23.19,312.87,322.87,9.00,178.00 SURF_ID='INERT' /
&OBST XB=23.19,33.19,312.87,322.87,9.00,173.00 SURF_ID='INERT' /
&OBST XB=33.19,43.19,312.87,322.87,9.00,167.00 SURF_ID='INERT' /
&OBST XB=43.19,53.19,312.87,322.87,9.00,162.00 SURF_ID='INERT' /
&OBST XB=53.19,63.19,312.87,322.87,9.00,158.00 SURF_ID='INERT' /
&OBST XB=63.19,73.19,312.87,322.87,9.00,155.00 SURF_ID='INERT' /
&OBST XB=73.19,83.19,312.87,322.87,9.00,151.00 SURF_ID='INERT' /
&OBST XB=83.19,93.19,312.87,322.87,9.00,147.00 SURF_ID='INERT' /
&OBST XB=93.19,103.19,312.87,322.87,9.00,143.00 SURF_ID='INERT' /
&OBST XB=103.19,113.19,312.87,322.87,9.00,139.00 SURF_ID='INERT' /
&OBST XB=113.19,123.19,312.87,322.87,9.00,135.00 SURF_ID='INERT' /
&OBST XB=123.19,133.19,312.87,322.87,9.00,131.00 SURF_ID='INERT' /
&OBST XB=133.19,143.19,312.87,322.87,9.00,127.00 SURF_ID='INERT' /
&OBST XB=143.19,153.19,312.87,322.87,9.00,123.00 SURF_ID='INERT' /
&OBST XB=153.19,163.19,312.87,322.87,9.00,119.00 SURF_ID='INERT' /
&OBST XB=163.19,173.19,312.87,322.87,9.00,115.00 SURF_ID='INERT' /
&OBST XB=173.19,183.19,312.87,322.87,9.00,111.00 SURF_ID='INERT' /
&OBST XB=183.19,193.19,312.87,322.87,9.00,107.00 SURF_ID='INERT' /
&OBST XB=193.19,203.19,312.87,322.87,9.00,103.00 SURF_ID='INERT' /
&OBST XB=203.19,213.19,312.87,322.87,9.00,100.00 SURF_ID='INERT' /
&OBST XB=213.19,223.19,312.87,322.87,9.00,96.00 SURF_ID='INERT' /
&OBST XB=223.19,233.19,312.87,322.87,9.00,92.00 SURF_ID='INERT' /
&OBST XB=233.19,243.19,312.87,322.87,9.00,89.00 SURF_ID='INERT' /
&OBST XB=243.19,253.19,312.87,322.87,9.00,87.00 SURF_ID='INERT' /
&OBST XB=253.19,263.19,312.87,322.87,9.00,86.00 SURF_ID='INERT' /
&OBST XB=263.19,273.19,312.87,322.87,9.00,85.00 SURF_ID='INERT' /
&OBST XB=273.19,283.19,312.87,322.87,9.00,83.00 SURF_ID='INERT' /
&OBST XB=283.19,293.19,312.87,322.87,9.00,82.00 SURF_ID='INERT' /
&OBST XB=293.19,303.19,312.87,322.87,9.00,81.00 SURF_ID='INERT' /
&OBST XB=303.19,313.19,312.87,322.87,9.00,80.00 SURF_ID='INERT' /
&OBST XB=313.19,323.19,312.87,322.87,9.00,78.00 SURF_ID='INERT' /
&OBST XB=323.19,333.19,312.87,322.87,9.00,77.00 SURF_ID='INERT' /
&OBST XB=333.19,343.19,312.87,322.87,9.00,76.00 SURF_ID='INERT' /
&OBST XB=343.19,353.19,312.87,322.87,9.00,74.00 SURF_ID='INERT' /
&OBST XB=353.19,363.19,312.87,322.87,9.00,73.00 SURF_ID='INERT' /
&OBST XB=363.19,373.19,312.87,322.87,9.00,72.00 SURF_ID='INERT' /
&OBST XB=373.19,383.19,312.87,322.87,9.00,72.00 SURF_ID='INERT' /
&OBST XB=383.19,393.19,312.87,322.87,9.00,72.00 SURF_ID='INERT' /
&OBST XB=393.19,403.19,312.87,322.87,9.00,71.00 SURF_ID='INERT' /
&OBST XB=403.19,413.19,312.87,322.87,9.00,72.00 SURF_ID='INERT' /
&OBST XB=413.19,423.19,312.87,322.87,9.00,72.00 SURF_ID='INERT' /
&OBST XB=423.19,433.19,312.87,322.87,9.00,72.00 SURF_ID='INERT' /
&OBST XB=433.19,443.19,312.87,322.87,9.00,72.00 SURF_ID='INERT' /
&OBST XB=443.19,453.19,312.87,322.87,9.00,72.00 SURF_ID='INERT' /
&OBST XB=453.19,463.19,312.87,322.87,9.00,72.00 SURF_ID='INERT' /
&OBST XB=463.19,473.19,312.87,322.87,9.00,72.00 SURF_ID='INERT' /
&OBST XB=473.19,483.19,312.87,322.87,9.00,72.00 SURF_ID='INERT' /
&OBST XB=483.19,493.19,312.87,322.87,9.00,72.00 SURF_ID='INERT' /
&OBST XB=493.19,503.19,312.87,322.87,9.00,71.00 SURF_ID='INERT' /
&OBST XB=503.19,513.19,312.87,322.87,9.00,70.00 SURF_ID='INERT' /
&OBST XB=513.19,523.19,312.87,322.87,9.00,69.00 SURF_ID='INERT' /
&OBST XB=523.19,533.19,312.87,322.87,9.00,67.00 SURF_ID='INERT' /
&OBST XB=-526.81,-516.81,302.87,312.87,9.00,174.00 SURF_ID='INERT' /
&OBST XB=-516.81,-506.81,302.87,312.87,9.00,177.00 SURF_ID='INERT' /
&OBST XB=-506.81,-496.81,302.87,312.87,9.00,182.00 SURF_ID='INERT' /
&OBST XB=-496.81,-486.81,302.87,312.87,9.00,186.00 SURF_ID='INERT' /
&OBST XB=-486.81,-476.81,302.87,312.87,9.00,190.00 SURF_ID='INERT' /
&OBST XB=-476.81,-466.81,302.87,312.87,9.00,193.00 SURF_ID='INERT' /
&OBST XB=-466.81,-456.81,302.87,312.87,9.00,197.00 SURF_ID='INERT' /
&OBST XB=-456.81,-446.81,302.87,312.87,9.00,199.00 SURF_ID='INERT' /
&OBST XB=-446.81,-436.81,302.87,312.87,9.00,198.00 SURF_ID='INERT' /
&OBST XB=-436.81,-426.81,302.87,312.87,9.00,198.00 SURF_ID='INERT' /
&OBST XB=-426.81,-416.81,302.87,312.87,9.00,197.00 SURF_ID='INERT' /
&OBST XB=-416.81,-406.81,302.87,312.87,9.00,195.00 SURF_ID='INERT' /
&OBST XB=-406.81,-396.81,302.87,312.87,9.00,192.00 SURF_ID='INERT' /
&OBST XB=-396.81,-386.81,302.87,312.87,9.00,190.00 SURF_ID='INERT' /
&OBST XB=-386.81,-376.81,302.87,312.87,9.00,189.00 SURF_ID='INERT' /
&OBST XB=-376.81,-366.81,302.87,312.87,9.00,188.00 SURF_ID='INERT' /
&OBST XB=-366.81,-356.81,302.87,312.87,9.00,187.00 SURF_ID='INERT' /
&OBST XB=-356.81,-346.81,302.87,312.87,9.00,189.00 SURF_ID='INERT' /
&OBST XB=-346.81,-336.81,302.87,312.87,9.00,191.00 SURF_ID='INERT' /
&OBST XB=-336.81,-326.81,302.87,312.87,9.00,194.00 SURF_ID='INERT' /
&OBST XB=-326.81,-316.81,302.87,312.87,9.00,196.00 SURF_ID='INERT' /
&OBST XB=-316.81,-306.81,302.87,312.87,9.00,197.00 SURF_ID='INERT' /
&OBST XB=-306.81,-296.81,302.87,312.87,9.00,199.00 SURF_ID='INERT' /
&OBST XB=-296.81,-286.81,302.87,312.87,9.00,198.00 SURF_ID='INERT' /
&OBST XB=-286.81,-276.81,302.87,312.87,9.00,196.00 SURF_ID='INERT' /
&OBST XB=-276.81,-266.81,302.87,312.87,9.00,193.00 SURF_ID='INERT' /
&OBST XB=-266.81,-256.81,302.87,312.87,9.00,191.00 SURF_ID='INERT' /
&OBST XB=-256.81,-246.81,302.87,312.87,9.00,189.00 SURF_ID='INERT' /
&OBST XB=-246.81,-236.81,302.87,312.87,9.00,187.00 SURF_ID='INERT' /
&OBST XB=-236.81,-226.81,302.87,312.87,9.00,185.00 SURF_ID='INERT' /
&OBST XB=-226.81,-216.81,302.87,312.87,9.00,186.00 SURF_ID='INERT' /
&OBST XB=-216.81,-206.81,302.87,312.87,9.00,187.00 SURF_ID='INERT' /
&OBST XB=-206.81,-196.81,302.87,312.87,9.00,189.00 SURF_ID='INERT' /
&OBST XB=-196.81,-186.81,302.87,312.87,9.00,192.00 SURF_ID='INERT' /
&OBST XB=-186.81,-176.81,302.87,312.87,9.00,196.00 SURF_ID='INERT' /
&OBST XB=-176.81,-166.81,302.87,312.87,9.00,200.00 SURF_ID='INERT' /
&OBST XB=-166.81,-156.81,302.87,312.87,9.00,205.00 SURF_ID='INERT' /
&OBST XB=-156.81,-146.81,302.87,312.87,9.00,209.00 SURF_ID='INERT' /
&OBST XB=-146.81,-136.81,302.87,312.87,9.00,213.00 SURF_ID='INERT' /
&OBST XB=-136.81,-126.81,302.87,312.87,9.00,216.00 SURF_ID='INERT' /
&OBST XB=-126.81,-116.81,302.87,312.87,9.00,219.00 SURF_ID='INERT' /
&OBST XB=-116.81,-106.81,302.87,312.87,9.00,222.00 SURF_ID='INERT' /
&OBST XB=-106.81,-96.81,302.87,312.87,9.00,223.00 SURF_ID='INERT' /
&OBST XB=-96.81,-86.81,302.87,312.87,9.00,223.00 SURF_ID='INERT' /
&OBST XB=-86.81,-76.81,302.87,312.87,9.00,223.00 SURF_ID='INERT' /
&OBST XB=-76.81,-66.81,302.87,312.87,9.00,221.00 SURF_ID='INERT' /
&OBST XB=-66.81,-56.81,302.87,312.87,9.00,218.00 SURF_ID='INERT' /
&OBST XB=-56.81,-46.81,302.87,312.87,9.00,215.00 SURF_ID='INERT' /
&OBST XB=-46.81,-36.81,302.87,312.87,9.00,211.00 SURF_ID='INERT' /
&OBST XB=-36.81,-26.81,302.87,312.87,9.00,207.00 SURF_ID='INERT' /
&OBST XB=-26.81,-16.81,302.87,312.87,9.00,202.00 SURF_ID='INERT' /
&OBST XB=-16.81,-6.81,302.87,312.87,9.00,197.00 SURF_ID='INERT' /
&OBST XB=-6.81,3.19,302.87,312.87,9.00,192.00 SURF_ID='INERT' /
&OBST XB=3.19,13.19,302.87,312.87,9.00,186.00 SURF_ID='INERT' /
&OBST XB=13.19,23.19,302.87,312.87,9.00,181.00 SURF_ID='INERT' /
&OBST XB=23.19,33.19,302.87,312.87,9.00,176.00 SURF_ID='INERT' /
&OBST XB=33.19,43.19,302.87,312.87,9.00,170.00 SURF_ID='INERT' /
&OBST XB=43.19,53.19,302.87,312.87,9.00,165.00 SURF_ID='INERT' /
&OBST XB=53.19,63.19,302.87,312.87,9.00,161.00 SURF_ID='INERT' /
&OBST XB=63.19,73.19,302.87,312.87,9.00,157.00 SURF_ID='INERT' /
&OBST XB=73.19,83.19,302.87,312.87,9.00,153.00 SURF_ID='INERT' /
&OBST XB=83.19,93.19,302.87,312.87,9.00,149.00 SURF_ID='INERT' /
&OBST XB=93.19,103.19,302.87,312.87,9.00,145.00 SURF_ID='INERT' /
&OBST XB=103.19,113.19,302.87,312.87,9.00,141.00 SURF_ID='INERT' /
&OBST XB=113.19,123.19,302.87,312.87,9.00,137.00 SURF_ID='INERT' /
&OBST XB=123.19,133.19,302.87,312.87,9.00,133.00 SURF_ID='INERT' /
&OBST XB=133.19,143.19,302.87,312.87,9.00,129.00 SURF_ID='INERT' /
&OBST XB=143.19,153.19,302.87,312.87,9.00,125.00 SURF_ID='INERT' /
&OBST XB=153.19,163.19,302.87,312.87,9.00,121.00 SURF_ID='INERT' /
&OBST XB=163.19,173.19,302.87,312.87,9.00,117.00 SURF_ID='INERT' /
&OBST XB=173.19,183.19,302.87,312.87,9.00,114.00 SURF_ID='INERT' /
&OBST XB=183.19,193.19,302.87,312.87,9.00,110.00 SURF_ID='INERT' /
&OBST XB=193.19,203.19,302.87,312.87,9.00,105.00 SURF_ID='INERT' /
&OBST XB=203.19,213.19,302.87,312.87,9.00,101.00 SURF_ID='INERT' /
&OBST XB=213.19,223.19,302.87,312.87,9.00,98.00 SURF_ID='INERT' /
&OBST XB=223.19,233.19,302.87,312.87,9.00,94.00 SURF_ID='INERT' /
&OBST XB=233.19,243.19,302.87,312.87,9.00,90.00 SURF_ID='INERT' /
&OBST XB=243.19,253.19,302.87,312.87,9.00,89.00 SURF_ID='INERT' /
&OBST XB=253.19,263.19,302.87,312.87,9.00,87.00 SURF_ID='INERT' /
&OBST XB=263.19,273.19,302.87,312.87,9.00,86.00 SURF_ID='INERT' /
&OBST XB=273.19,283.19,302.87,312.87,9.00,85.00 SURF_ID='INERT' /
&OBST XB=283.19,293.19,302.87,312.87,9.00,83.00 SURF_ID='INERT' /
&OBST XB=293.19,303.19,302.87,312.87,9.00,82.00 SURF_ID='INERT' /
&OBST XB=303.19,313.19,302.87,312.87,9.00,81.00 SURF_ID='INERT' /
&OBST XB=313.19,323.19,302.87,312.87,9.00,79.00 SURF_ID='INERT' /
&OBST XB=323.19,333.19,302.87,312.87,9.00,78.00 SURF_ID='INERT' /
&OBST XB=333.19,343.19,302.87,312.87,9.00,77.00 SURF_ID='INERT' /
&OBST XB=343.19,353.19,302.87,312.87,9.00,76.00 SURF_ID='INERT' /
&OBST XB=353.19,363.19,302.87,312.87,9.00,75.00 SURF_ID='INERT' /
&OBST XB=363.19,373.19,302.87,312.87,9.00,74.00 SURF_ID='INERT' /
&OBST XB=373.19,383.19,302.87,312.87,9.00,74.00 SURF_ID='INERT' /