! Generated by qgis2fds 1.0.2 on QGIS 3.28.8-Firenze
! QGIS file: golden_gate.qgs
! Date: Wed, 30 Aug 2023, 17:01:30

Selected UTM CRS: WGS 84 / UTM zone 10N
Domain origin: 545231.8E 4186936.3N
  <http://www.openstreetmap.org/?mlat=37.828724020530444&mlon=-122.48601081275662&zoom=12>
Domain extent: 544696.7-545746.7E 4186808.0-4187488.0N

Desired resolution: 10.0m
DEM layer: US_DEM2016_local
Landuse layer: US_200F13_20_local
Landuse type file: ...sts/golden_gate/QGIS/sheets/Landfire F13 landuse type.csv
Fire layer: Fire
FDS DEVCs layer: FIXME
Wind file: ...s2fds/verification/tests/golden_gate/QGIS/sheets/wind.csv

&HEAD CHID='test_obst' TITLE='Description of test_obst' /

MISC LEVEL_SET_MODE parameter
 1: Wind not affected by the terrain. No fire.
 2: Wind field established over the terrain, then frozen. No fire.
 3: Wind field following the terrain, no fire.
 4: Wind and fire fully-coupled.

&MISC ORIGIN_LAT=37.8287240
      ORIGIN_LON=-122.4860108
      NORTH_BEARING=0.
      TERRAIN_IMAGE='test_obst_tex.png'
      LEVEL_SET_MODE=1 
      THICKEN_OBSTRUCTIONS=T /

&TIME T_BEGIN=0.0, T_END=0.0 /

Example REAC, used when LEVEL_SET_MODE=4
_REAC ID='Wood' SOOT_YIELD=0.005 O=2.5 C=3.4 H=6.2
      HEAT_OF_COMBUSTION=17700. /

Domain and its boundary conditions
2 · 2 meshes of 524.0m · 339.0m · 268.0m size and 385560 cells each
&MULT ID='Meshes'
      DX=524.00 I_LOWER=0 I_UPPER=1
      DY=339.00 J_LOWER=0 J_UPPER=1 /
&MESH IJK=105,68,54 MULT_ID='Meshes'
      XB=-534.13,-10.13,-127.26,211.74,9.00,277.00 /
&VENT ID='Domain BC XMIN' DB='XMIN' SURF_ID='OPEN' /
&VENT ID='Domain BC XMAX' DB='XMAX' SURF_ID='OPEN' /
&VENT ID='Domain BC YMIN' DB='YMIN' SURF_ID='OPEN' /
&VENT ID='Domain BC YMAX' DB='YMAX' SURF_ID='OPEN' /
&VENT ID='Domain BC ZMAX' DB='ZMAX' SURF_ID='OPEN' /

Wind rose at domain origin
&DEVC ID='Origin_UV' XYZ=0.,0.,276.90 QUANTITY='U-VELOCITY' /
&DEVC ID='Origin_VV' XYZ=0.,0.,276.90 QUANTITY='V-VELOCITY' /
&DEVC ID='Origin_WV' XYZ=0.,0.,276.90 QUANTITY='W-VELOCITY' /

Landuse boundary conditions
&SURF ID='NA' RGB=255,255,255 /
&SURF ID='A01' RGB=255,254,212 VEG_LSET_FUEL_INDEX=1 /
&SURF ID='A02' RGB=255,253,102 VEG_LSET_FUEL_INDEX=2 /
&SURF ID='A03' RGB=236,212,99 VEG_LSET_FUEL_INDEX=3 /
&SURF ID='A04' RGB=254,193,119 VEG_LSET_FUEL_INDEX=4 /
&SURF ID='A05' RGB=249,197,92 VEG_LSET_FUEL_INDEX=5 /
&SURF ID='A06' RGB=217,196,152 VEG_LSET_FUEL_INDEX=6 /
&SURF ID='A07' RGB=170,155,127 VEG_LSET_FUEL_INDEX=7 /
&SURF ID='A08' RGB=229,253,214 VEG_LSET_FUEL_INDEX=8 /
&SURF ID='A09' RGB=162,191,90 VEG_LSET_FUEL_INDEX=9 /
&SURF ID='A10' RGB=114,154,85 VEG_LSET_FUEL_INDEX=10 /
&SURF ID='A11' RGB=235,212,253 VEG_LSET_FUEL_INDEX=11 /
&SURF ID='A12' RGB=163,177,243 VEG_LSET_FUEL_INDEX=12 /
&SURF ID='A13' RGB=0,0,0 VEG_LSET_FUEL_INDEX=13 /
&SURF ID='Urban' RGB=186,119,80 /
&SURF ID='Snow-Ice' RGB=234,234,234 /
&SURF ID='Agricolture' RGB=253,242,242 /
&SURF ID='Water' RGB=137,183,221 /
&SURF ID='Barren' RGB=133,153,156 /
&SURF ID='Ignition' VEG_LSET_IGNITE_TIME=0. COLOR='RED' /
&SURF ID='Burned' RGB=20,20,20 /

Output quantities
&SLCF AGL_SLICE=5. QUANTITY='LEVEL SET VALUE' /
&SLCF AGL_SLICE=5. QUANTITY='TEMPERATURE' VECTOR=T /
&SLCF PBX=0.00 QUANTITY='TEMPERATURE' VECTOR=T /
&SLCF PBY=0.00 QUANTITY='TEMPERATURE' VECTOR=T /

Wind
&WIND SPEED=1., RAMP_SPEED_T='ws', RAMP_DIRECTION_T='wd' /
&RAMP ID='ws', T=0.0, F=2.0 /
&RAMP ID='ws', T=180.0, F=5.0 /
&RAMP ID='ws', T=360.0, F=10.0 /
&RAMP ID='wd', T=0.0, F=45.0 /
&RAMP ID='wd', T=180.0, F=90.0 /
&RAMP ID='wd', T=360.0, F=135.0 /

Terrain (7314 OBSTs)
&OBST XB=-540.13,-530.13,546.74,556.74,9.00,188.00 SURF_ID='A04' /
&OBST XB=-530.13,-520.13,546.74,556.74,9.00,191.00 SURF_ID='A05' /
&OBST XB=-520.13,-510.13,546.74,556.74,9.00,194.00 SURF_ID='A05' /
&OBST XB=-510.13,-500.13,546.74,556.74,9.00,198.00 SURF_ID='A05' /
&OBST XB=-500.13,-490.13,546.74,556.74,9.00,202.00 SURF_ID='A05' /
&OBST XB=-490.13,-480.13,546.74,556.74,9.00,205.00 SURF_ID='A04' /
&OBST XB=-480.13,-470.13,546.74,556.74,9.00,208.00 SURF_ID='A04' /
&OBST XB=-470.13,-460.13,546.74,556.74,9.00,209.00 SURF_ID='A04' /
&OBST XB=-460.13,-450.13,546.74,556.74,9.00,210.00 SURF_ID='A04' /
&OBST XB=-450.13,-440.13,546.74,556.74,9.00,211.00 SURF_ID='A04' /
&OBST XB=-440.13,-430.13,546.74,556.74,9.00,210.00 SURF_ID='A04' /
&OBST XB=-430.13,-420.13,546.74,556.74,9.00,210.00 SURF_ID='A05' /
&OBST XB=-420.13,-410.13,546.74,556.74,9.00,209.00 SURF_ID='A05' /
&OBST XB=-410.13,-400.13,546.74,556.74,9.00,208.00 SURF_ID='A05' /
&OBST XB=-400.13,-390.13,546.74,556.74,9.00,206.00 SURF_ID='A05' /
&OBST XB=-390.13,-380.13,546.74,556.74,9.00,205.00 SURF_ID='A05' /
&OBST XB=-380.13,-370.13,546.74,556.74,9.00,204.00 SURF_ID='A05' /
&OBST XB=-370.13,-360.13,546.74,556.74,9.00,205.00 SURF_ID='A05' /
&OBST XB=-360.13,-350.13,546.74,556.74,9.00,205.00 SURF_ID='A05' /
&OBST XB=-350.13,-340.13,546.74,556.74,9.00,207.00 SURF_ID='A05' /
&OBST XB=-340.13,-330.13,546.74,556.74,9.00,209.00 SURF_ID='A04' /
&OBST XB=-330.13,-320.13,546.74,556.74,9.00,211.00 SURF_ID='A04' /
&OBST XB=-320.13,-310.13,546.74,556.74,9.00,212.00 SURF_ID='A04' /
&OBST XB=-310.13,-300.13,546.74,556.74,9.00,211.00 SURF_ID='A05' /
&OBST XB=-300.13,-290.13,546.74,556.74,9.00,210.00 SURF_ID='Barren' /
&OBST XB=-290.13,-280.13,546.74,556.74,9.00,209.00 SURF_ID='Barren' /
&OBST XB=-280.13,-270.13,546.74,556.74,9.00,207.00 SURF_ID='Barren' /
&OBST XB=-270.13,-260.13,546.74,556.74,9.00,204.00 SURF_ID='A04' /
&OBST XB=-260.13,-250.13,546.74,556.74,9.00,203.00 SURF_ID='A04' /
&OBST XB=-250.13,-240.13,546.74,556.74,9.00,202.00 SURF_ID='A04' /
&OBST XB=-240.13,-230.13,546.74,556.74,9.00,202.00 SURF_ID='A05' /
&OBST XB=-230.13,-220.13,546.74,556.74,9.00,202.00 SURF_ID='A05' /
&OBST XB=-220.13,-210.13,546.74,556.74,9.00,204.00 SURF_ID='A05' /
&OBST XB=-210.13,-200.13,546.74,556.74,9.00,206.00 SURF_ID='A05' /
&OBST XB=-200.13,-190.13,546.74,556.74,9.00,209.00 SURF_ID='A05' /
&OBST XB=-190.13,-180.13,546.74,556.74,9.00,213.00 SURF_ID='A05' /
&OBST XB=-180.13,-170.13,546.74,556.74,9.00,217.00 SURF_ID='A05' /
&OBST XB=-170.13,-160.13,546.74,556.74,9.00,221.00 SURF_ID='A05' /
&OBST XB=-160.13,-150.13,546.74,556.74,9.00,224.00 SURF_ID='A05' /
&OBST XB=-150.13,-140.13,546.74,556.74,9.00,225.00 SURF_ID='A05' /
&OBST XB=-140.13,-130.13,546.74,556.74,9.00,227.00 SURF_ID='A05' /
&OBST XB=-130.13,-120.13,546.74,556.74,9.00,227.00 SURF_ID='A05' /
&OBST XB=-120.13,-110.13,546.74,556.74,9.00,225.00 SURF_ID='A05' /
&OBST XB=-110.13,-100.13,546.74,556.74,9.00,223.00 SURF_ID='A05' /
&OBST XB=-100.13,-90.13,546.74,556.74,9.00,220.00 SURF_ID='A05' /
&OBST XB=-90.13,-80.13,546.74,556.74,9.00,216.00 SURF_ID='A05' /
&OBST XB=-80.13,-70.13,546.74,556.74,9.00,212.00 SURF_ID='A05' /
&OBST XB=-70.13,-60.13,546.74,556.74,9.00,207.00 SURF_ID='A05' /
&OBST XB=-60.13,-50.13,546.74,556.74,9.00,202.00 SURF_ID='A05' /
&OBST XB=-50.13,-40.13,546.74,556.74,9.00,197.00 SURF_ID='A05' /
&OBST XB=-40.13,-30.13,546.74,556.74,9.00,192.00 SURF_ID='A05' /
&OBST XB=-30.13,-20.13,546.74,556.74,9.00,187.00 SURF_ID='A05' /
&OBST XB=-20.13,-10.13,546.74,556.74,9.00,182.00 SURF_ID='A05' /
&OBST XB=-10.13,-0.13,546.74,556.74,9.00,177.00 SURF_ID='A05' /
&OBST XB=-0.13,9.87,546.74,556.74,9.00,172.00 SURF_ID='A05' /
&OBST XB=9.87,19.87,546.74,556.74,9.00,167.00 SURF_ID='A05' /
&OBST XB=19.87,29.87,546.74,556.74,9.00,162.00 SURF_ID='A05' /
&OBST XB=29.87,39.87,546.74,556.74,9.00,157.00 SURF_ID='A05' /
&OBST XB=39.87,49.87,546.74,556.74,9.00,153.00 SURF_ID='A05' /
&OBST XB=49.87,59.87,546.74,556.74,9.00,149.00 SURF_ID='A05' /
&OBST XB=59.87,69.87,546.74,556.74,9.00,145.00 SURF_ID='A05' /
&OBST XB=69.87,79.87,546.74,556.74,9.00,141.00 SURF_ID='A05' /
&OBST XB=79.87,89.87,546.74,556.74,9.00,138.00 SURF_ID='A05' /
&OBST XB=89.87,99.87,546.74,556.74,9.00,134.00 SURF_ID='A05' /
&OBST XB=99.87,109.87,546.74,556.74,9.00,131.00 SURF_ID='A05' /
&OBST XB=109.87,119.87,546.74,556.74,9.00,128.00 SURF_ID='A05' /
&OBST XB=119.87,129.87,546.74,556.74,9.00,124.00 SURF_ID='A05' /
&OBST XB=129.87,139.87,546.74,556.74,9.00,120.00 SURF_ID='A05' /
&OBST XB=139.87,149.87,546.74,556.74,9.00,116.00 SURF_ID='A10' /
&OBST XB=149.87,159.87,546.74,556.74,9.00,111.00 SURF_ID='A10' /
&OBST XB=159.87,169.87,546.74,556.74,9.00,107.00 SURF_ID='A10' /
&OBST XB=169.87,179.87,546.74,556.74,9.00,103.00 SURF_ID='A05' /
&OBST XB=179.87,189.87,546.74,556.74,9.00,99.00 SURF_ID='A05' /
&OBST XB=189.87,199.87,546.74,556.74,9.00,95.00 SURF_ID='A05' /
&OBST XB=199.87,209.87,546.74,556.74,9.00,91.00 SURF_ID='Urban' /
&OBST XB=209.87,219.87,546.74,556.74,9.00,88.00 SURF_ID='Urban' /
&OBST XB=219.87,229.87,546.74,556.74,9.00,86.00 SURF_ID='Urban' /
&OBST XB=229.87,239.87,546.74,556.74,9.00,85.00 SURF_ID='A05' /
&OBST XB=239.87,249.87,546.74,556.74,9.00,84.00 SURF_ID='Urban' /
&OBST XB=249.87,259.87,546.74,556.74,9.00,83.00 SURF_ID='Urban' /
&OBST XB=259.87,269.87,546.74,556.74,9.00,82.00 SURF_ID='Urban' /
&OBST XB=269.87,279.87,546.74,556.74,9.00,80.00 SURF_ID='A05' /
&OBST XB=279.87,289.87,546.74,556.74,9.00,79.00 SURF_ID='A05' /
&OBST XB=289.87,299.87,546.74,556.74,9.00,77.00 SURF_ID='A05' /
&OBST XB=299.87,309.87,546.74,556.74,9.00,76.00 SURF_ID='A08' /
&OBST XB=309.87,319.87,546.74,556.74,9.00,74.00 SURF_ID='A08' /
&OBST XB=319.87,329.87,546.74,556.74,9.00,72.00 SURF_ID='A08' /
&OBST XB=329.87,339.87,546.74,556.74,9.00,70.00 SURF_ID='A09' /
&OBST XB=339.87,349.87,546.74,556.74,9.00,67.00 SURF_ID='A09' /
&OBST XB=349.87,359.87,546.74,556.74,9.00,66.00 SURF_ID='A09' /
&OBST XB=359.87,369.87,546.74,556.74,9.00,64.00 SURF_ID='A09' /
&OBST XB=369.87,379.87,546.74,556.74,9.00,63.00 SURF_ID='A09' /
&OBST XB=379.87,389.87,546.74,556.74,9.00,64.00 SURF_ID='A09' /
&OBST XB=389.87,399.87,546.74,556.74,9.00,64.00 SURF_ID='A12' /
&OBST XB=399.87,409.87,546.74,556.74,9.00,65.00 SURF_ID='A12' /
&OBST XB=409.87,419.87,546.74,556.74,9.00,65.00 SURF_ID='A12' /
&OBST XB=419.87,429.87,546.74,556.74,9.00,65.00 SURF_ID='A12' /
&OBST XB=429.87,439.87,546.74,556.74,9.00,65.00 SURF_ID='A09' /
&OBST XB=439.87,449.87,546.74,556.74,9.00,65.00 SURF_ID='A09' /
&OBST XB=449.87,459.87,546.74,556.74,9.00,64.00 SURF_ID='A09' /
&OBST XB=459.87,469.87,546.74,556.74,9.00,63.00 SURF_ID='A09' /
&OBST XB=469.87,479.87,546.74,556.74,9.00,63.00 SURF_ID='A09' /
&OBST XB=479.87,489.87,546.74,556.74,9.00,62.00 SURF_ID='A09' /
&OBST XB=489.87,499.87,546.74,556.74,9.00,61.00 SURF_ID='A09' /
&OBST XB=499.87,509.87,546.74,556.74,9.00,60.00 SURF_ID='A09' /
&OBST XB=509.87,519.87,546.74,556.74,9.00,58.00 SURF_ID='A09' /
&OBST XB=-540.13,-530.13,536.74,546.74,9.00,183.00 SURF_ID='A05' /
&OBST XB=-530.13,-520.13,536.74,546.74,9.00,187.00 SURF_ID='A05' /
&OBST XB=-520.13,-510.13,536.74,546.74,9.00,190.00 SURF_ID='A05' /
&OBST XB=-510.13,-500.13,536.74,546.74,9.00,194.00 SURF_ID='A05' /
&OBST XB=-500.13,-490.13,536.74,546.74,9.00,198.00 SURF_ID='A05' /
&OBST XB=-490.13,-480.13,536.74,546.74,9.00,201.00 SURF_ID='A04' /
&OBST XB=-480.13,-470.13,536.74,546.74,9.00,204.00 SURF_ID='A04' /
&OBST XB=-470.13,-460.13,536.74,546.74,9.00,205.00 SURF_ID='A04' /
&OBST XB=-460.13,-450.13,536.74,546.74,9.00,206.00 SURF_ID='A04' /
&OBST XB=-450.13,-440.13,536.74,546.74,9.00,206.00 SURF_ID='A04' /
&OBST XB=-440.13,-430.13,536.74,546.74,9.00,206.00 SURF_ID='A04' /
&OBST XB=-430.13,-420.13,536.74,546.74,9.00,205.00 SURF_ID='A05' /
&OBST XB=-420.13,-410.13,536.74,546.74,9.00,203.00 SURF_ID='A05' /
&OBST XB=-410.13,-400.13,536.74,546.74,9.00,202.00 SURF_ID='A05' /
&OBST XB=-400.13,-390.13,536.74,546.74,9.00,200.00 SURF_ID='A05' /
&OBST XB=-390.13,-380.13,536.74,546.74,9.00,199.00 SURF_ID='A05' /
&OBST XB=-380.13,-370.13,536.74,546.74,9.00,199.00 SURF_ID='A05' /
&OBST XB=-370.13,-360.13,536.74,546.74,9.00,199.00 SURF_ID='A05' /
&OBST XB=-360.13,-350.13,536.74,546.74,9.00,201.00 SURF_ID='A05' /
&OBST XB=-350.13,-340.13,536.74,546.74,9.00,203.00 SURF_ID='A05' /
&OBST XB=-340.13,-330.13,536.74,546.74,9.00,205.00 SURF_ID='A05' /
&OBST XB=-330.13,-320.13,536.74,546.74,9.00,207.00 SURF_ID='A05' /
&OBST XB=-320.13,-310.13,536.74,546.74,9.00,208.00 SURF_ID='A05' /
&OBST XB=-310.13,-300.13,536.74,546.74,9.00,207.00 SURF_ID='A05' /
&OBST XB=-300.13,-290.13,536.74,546.74,9.00,205.00 SURF_ID='Barren' /
&OBST XB=-290.13,-280.13,536.74,546.74,9.00,204.00 SURF_ID='Barren' /
&OBST XB=-280.13,-270.13,536.74,546.74,9.00,202.00 SURF_ID='Barren' /
&OBST XB=-270.13,-260.13,536.74,546.74,9.00,199.00 SURF_ID='A04' /
&OBST XB=-260.13,-250.13,536.74,546.74,9.00,197.00 SURF_ID='A04' /
&OBST XB=-250.13,-240.13,536.74,546.74,9.00,197.00 SURF_ID='A04' /
&OBST XB=-240.13,-230.13,536.74,546.74,9.00,197.00 SURF_ID='A05' /
&OBST XB=-230.13,-220.13,536.74,546.74,9.00,197.00 SURF_ID='A05' /
&OBST XB=-220.13,-210.13,536.74,546.74,9.00,199.00 SURF_ID='A05' /
&OBST XB=-210.13,-200.13,536.74,546.74,9.00,202.00 SURF_ID='A05' /
&OBST XB=-200.13,-190.13,536.74,546.74,9.00,205.00 SURF_ID='A05' /
&OBST XB=-190.13,-180.13,536.74,546.74,9.00,209.00 SURF_ID='A05' /
&OBST XB=-180.13,-170.13,536.74,546.74,9.00,213.00 SURF_ID='A05' /
&OBST XB=-170.13,-160.13,536.74,546.74,9.00,218.00 SURF_ID='A05' /
&OBST XB=-160.13,-150.13,536.74,546.74,9.00,221.00 SURF_ID='A05' /
&OBST XB=-150.13,-140.13,536.74,546.74,9.00,223.00 SURF_ID='A05' /
&OBST XB=-140.13,-130.13,536.74,546.74,9.00,225.00 SURF_ID='A05' /
&OBST XB=-130.13,-120.13,536.74,546.74,9.00,226.00 SURF_ID='A05' /
&OBST XB=-120.13,-110.13,536.74,546.74,9.00,225.00 SURF_ID='A05' /
&OBST XB=-110.13,-100.13,536.74,546.74,9.00,223.00 SURF_ID='A05' /
&OBST XB=-100.13,-90.13,536.74,546.74,9.00,222.00 SURF_ID='A05' /
&OBST XB=-90.13,-80.13,536.74,546.74,9.00,218.00 SURF_ID='A05' /
&OBST XB=-80.13,-70.13,536.74,546.74,9.00,214.00 SURF_ID='A05' /
&OBST XB=-70.13,-60.13,536.74,546.74,9.00,210.00 SURF_ID='A05' /
&OBST XB=-60.13,-50.13,536.74,546.74,9.00,205.00 SURF_ID='A05' /
&OBST XB=-50.13,-40.13,536.74,546.74,9.00,201.00 SURF_ID='A05' /
&OBST XB=-40.13,-30.13,536.74,546.74,9.00,196.00 SURF_ID='A05' /
&OBST XB=-30.13,-20.13,536.74,546.74,9.00,191.00 SURF_ID='A05' /
&OBST XB=-20.13,-10.13,536.74,546.74,9.00,186.00 SURF_ID='A05' /
&OBST XB=-10.13,-0.13,536.74,546.74,9.00,180.00 SURF_ID='A05' /
&OBST XB=-0.13,9.87,536.74,546.74,9.00,175.00 SURF_ID='A05' /
&OBST XB=9.87,19.87,536.74,546.74,9.00,170.00 SURF_ID='A05' /
&OBST XB=19.87,29.87,536.74,546.74,9.00,165.00 SURF_ID='A05' /
&OBST XB=29.87,39.87,536.74,546.74,9.00,160.00 SURF_ID='A05' /
&OBST XB=39.87,49.87,536.74,546.74,9.00,156.00 SURF_ID='A05' /
&OBST XB=49.87,59.87,536.74,546.74,9.00,152.00 SURF_ID='A05' /
&OBST XB=59.87,69.87,536.74,546.74,9.00,148.00 SURF_ID='A05' /
&OBST XB=69.87,79.87,536.74,546.74,9.00,144.00 SURF_ID='A05' /
&OBST XB=79.87,89.87,536.74,546.74,9.00,141.00 SURF_ID='A05' /
&OBST XB=89.87,99.87,536.74,546.74,9.00,137.00 SURF_ID='A05' /
&OBST XB=99.87,109.87,536.74,546.74,9.00,133.00 SURF_ID='A05' /
&OBST XB=109.87,119.87,536.74,546.74,9.00,130.00 SURF_ID='A05' /
&OBST XB=119.87,129.87,536.74,546.74,9.00,126.00 SURF_ID='A05' /
&OBST XB=129.87,139.87,536.74,546.74,9.00,122.00 SURF_ID='A05' /
&OBST XB=139.87,149.87,536.74,546.74,9.00,117.00 SURF_ID='A10' /
&OBST XB=149.87,159.87,536.74,546.74,9.00,113.00 SURF_ID='A10' /
&OBST XB=159.87,169.87,536.74,546.74,9.00,109.00 SURF_ID='A10' /
&OBST XB=169.87,179.87,536.74,546.74,9.00,105.00 SURF_ID='A10' /
&OBST XB=179.87,189.87,536.74,546.74,9.00,101.00 SURF_ID='A05' /
&OBST XB=189.87,199.87,536.74,546.74,9.00,98.00 SURF_ID='A05' /
&OBST XB=199.87,209.87,536.74,546.74,9.00,94.00 SURF_ID='A05' /
&OBST XB=209.87,219.87,536.74,546.74,9.00,90.00 SURF_ID='A05' /
&OBST XB=219.87,229.87,536.74,546.74,9.00,87.00 SURF_ID='A05' /
&OBST XB=229.87,239.87,536.74,546.74,9.00,86.00 SURF_ID='A05' /
&OBST XB=239.87,249.87,536.74,546.74,9.00,85.00 SURF_ID='Urban' /
&OBST XB=249.87,259.87,536.74,546.74,9.00,84.00 SURF_ID='Urban' /
&OBST XB=259.87,269.87,536.74,546.74,9.00,82.00 SURF_ID='Urban' /
&OBST XB=269.87,279.87,536.74,546.74,9.00,81.00 SURF_ID='A05' /
&OBST XB=279.87,289.87,536.74,546.74,9.00,80.00 SURF_ID='A05' /
&OBST XB=289.87,299.87,536.74,546.74,9.00,78.00 SURF_ID='A05' /
&OBST XB=299.87,309.87,536.74,546.74,9.00,77.00 SURF_ID='Urban' /
&OBST XB=309.87,319.87,536.74,546.74,9.00,76.00 SURF_ID='Urban' /
&OBST XB=319.87,329.87,536.74,546.74,9.00,74.00 SURF_ID='Urban' /
&OBST XB=329.87,339.87,536.74,546.74,9.00,72.00 SURF_ID='A09' /
&OBST XB=339.87,349.87,536.74,546.74,9.00,70.00 SURF_ID='A09' /
&OBST XB=349.87,359.87,536.74,546.74,9.00,69.00 SURF_ID='A09' /
&OBST XB=359.87,369.87,536.74,546.74,9.00,68.00 SURF_ID='A09' /
&OBST XB=369.87,379.87,536.74,546.74,9.00,68.00 SURF_ID='A09' /
&OBST XB=379.87,389.87,536.74,546.74,9.00,68.00 SURF_ID='A09' /
&OBST XB=389.87,399.87,536.74,546.74,9.00,69.00 SURF_ID='A09' /
&OBST XB=399.87,409.87,536.74,546.74,9.00,70.00 SURF_ID='A12' /
&OBST XB=409.87,419.87,536.74,546.74,9.00,70.00 SURF_ID='A05' /
&OBST XB=419.87,429.87,536.74,546.74,9.00,69.00 SURF_ID='A05' /
&OBST XB=429.87,439.87,536.74,546.74,9.00,69.00 SURF_ID='A09' /
&OBST XB=439.87,449.87,536.74,546.74,9.00,68.00 SURF_ID='A09' /
&OBST XB=449.87,459.87,536.74,546.74,9.00,68.00 SURF_ID='A09' /
&OBST XB=459.87,469.87,536.74,546.74,9.00,68.00 SURF_ID='A09' /
&OBST XB=469.87,479.87,536.74,546.74,9.00,68.00 SURF_ID='A09' /
&OBST XB=479.87,489.87,536.74,546.74,9.00,67.00 SURF_ID='A09' /
&OBST XB=489.87,499.87,536.74,546.74,9.00,66.00 SURF_ID='A09' /
&OBST XB=499.87,509.87,536.74,546.74,9.00,65.00 SURF_ID='A09' /
&OBST XB=509.87,519.87,536.74,546.74,9.00,64.00 SURF_ID='A09' /
&OBST XB=-540.13,-530.13,526.74,536.74,9.00,178.00 SURF_ID='A05' /
&OBST XB=-530.13,-520.13,526.74,536.74,9.00,182.00 SURF_ID='A05' /
&OBST XB=-520.13,-510.13,526.74,536.74,9.00,186.00 SURF_ID='A05' /
&OBST XB=-510.13,-500.13,526.74,536.74,9.00,190.00 SURF_ID='A05' /
&OBST XB=-500.13,-490.13,526.74,536.74,9.00,194.00 SURF_ID='A05' /
&OBST XB=-490.13,-480.13,526.74,536.74,9.00,197.00 SURF_ID='A05' /
&OBST XB=-480.13,-470.13,526.74,536.74,9.00,200.00 SURF_ID='A05' /
&OBST XB=-470.13,-460.13,526.74,536.74,9.00,202.00 SURF_ID='A05' /
&OBST XB=-460.13,-450.13,526.74,536.74,9.00,202.00 SURF_ID='A04' /
&OBST XB=-450.13,-440.13,526.74,536.74,9.00,202.00 SURF_ID='A04' /
&OBST XB=-440.13,-430.13,526.74,536.74,9.00,201.00 SURF_ID='A04' /
&OBST XB=-430.13,-420.13,526.74,536.74,9.00,200.00 SURF_ID='A05' /
&OBST XB=-420.13,-410.13,526.74,536.74,9.00,198.00 SURF_ID='A05' /
&OBST XB=-410.13,-400.13,526.74,536.74,9.00,196.00 SURF_ID='A05' /
&OBST XB=-400.13,-390.13,526.74,536.74,9.00,194.00 SURF_ID='A05' /
&OBST XB=-390.13,-380.13,526.74,536.74,9.00,193.00 SURF_ID='A05' /
&OBST XB=-380.13,-370.13,526.74,536.74,9.00,192.00 SURF_ID='A05' /
&OBST XB=-370.13,-360.13,526.74,536.74,9.00,194.00 SURF_ID='A05' /
&OBST XB=-360.13,-350.13,526.74,536.74,9.00,196.00 SURF_ID='A05' /
&OBST XB=-350.13,-340.13,526.74,536.74,9.00,199.00 SURF_ID='A05' /
&OBST XB=-340.13,-330.13,526.74,536.74,9.00,200.00 SURF_ID='A05' /
&OBST XB=-330.13,-320.13,526.74,536.74,9.00,202.00 SURF_ID='A05' /
&OBST XB=-320.13,-310.13,526.74,536.74,9.00,203.00 SURF_ID='A05' /
&OBST XB=-310.13,-300.13,526.74,536.74,9.00,202.00 SURF_ID='A05' /
&OBST XB=-300.13,-290.13,526.74,536.74,9.00,201.00 SURF_ID='Barren' /
&OBST XB=-290.13,-280.13,526.74,536.74,9.00,199.00 SURF_ID='Barren' /
&OBST XB=-280.13,-270.13,526.74,536.74,9.00,197.00 SURF_ID='Barren' /
&OBST XB=-270.13,-260.13,526.74,536.74,9.00,194.00 SURF_ID='A05' /
&OBST XB=-260.13,-250.13,526.74,536.74,9.00,192.00 SURF_ID='A05' /
&OBST XB=-250.13,-240.13,526.74,536.74,9.00,191.00 SURF_ID='A05' /
&OBST XB=-240.13,-230.13,526.74,536.74,9.00,192.00 SURF_ID='A05' /
&OBST XB=-230.13,-220.13,526.74,536.74,9.00,192.00 SURF_ID='A05' /
&OBST XB=-220.13,-210.13,526.74,536.74,9.00,194.00 SURF_ID='A05' /
&OBST XB=-210.13,-200.13,526.74,536.74,9.00,197.00 SURF_ID='A05' /
&OBST XB=-200.13,-190.13,526.74,536.74,9.00,201.00 SURF_ID='A05' /
&OBST XB=-190.13,-180.13,526.74,536.74,9.00,205.00 SURF_ID='A05' /
&OBST XB=-180.13,-170.13,526.74,536.74,9.00,209.00 SURF_ID='A05' /
&OBST XB=-170.13,-160.13,526.74,536.74,9.00,214.00 SURF_ID='A05' /
&OBST XB=-160.13,-150.13,526.74,536.74,9.00,218.00 SURF_ID='A05' /
&OBST XB=-150.13,-140.13,526.74,536.74,9.00,220.00 SURF_ID='A05' /
&OBST XB=-140.13,-130.13,526.74,536.74,9.00,222.00 SURF_ID='A05' /
&OBST XB=-130.13,-120.13,526.74,536.74,9.00,225.00 SURF_ID='A05' /
&OBST XB=-120.13,-110.13,526.74,536.74,9.00,224.00 SURF_ID='A05' /
&OBST XB=-110.13,-100.13,526.74,536.74,9.00,223.00 SURF_ID='A05' /
&OBST XB=-100.13,-90.13,526.74,536.74,9.00,223.00 SURF_ID='A05' /
&OBST XB=-90.13,-80.13,526.74,536.74,9.00,220.00 SURF_ID='A05' /
&OBST XB=-80.13,-70.13,526.74,536.74,9.00,216.00 SURF_ID='A05' /
&OBST XB=-70.13,-60.13,526.74,536.74,9.00,212.00 SURF_ID='A05' /
&OBST XB=-60.13,-50.13,526.74,536.74,9.00,208.00 SURF_ID='A05' /
&OBST XB=-50.13,-40.13,526.74,536.74,9.00,204.00 SURF_ID='A05' /
&OBST XB=-40.13,-30.13,526.74,536.74,9.00,199.00 SURF_ID='A05' /
&OBST XB=-30.13,-20.13,526.74,536.74,9.00,194.00 SURF_ID='A05' /
&OBST XB=-20.13,-10.13,526.74,536.74,9.00,189.00 SURF_ID='A05' /
&OBST XB=-10.13,-0.13,526.74,536.74,9.00,183.00 SURF_ID='A05' /
&OBST XB=-0.13,9.87,526.74,536.74,9.00,178.00 SURF_ID='A05' /
&OBST XB=9.87,19.87,526.74,536.74,9.00,173.00 SURF_ID='A05' /
&OBST XB=19.87,29.87,526.74,536.74,9.00,167.00 SURF_ID='A05' /
&OBST XB=29.87,39.87,526.74,536.74,9.00,162.00 SURF_ID='A05' /
&OBST XB=39.87,49.87,526.74,536.74,9.00,158.00 SURF_ID='A05' /
&OBST XB=49.87,59.87,526.74,536.74,9.00,155.00 SURF_ID='A05' /
&OBST XB=59.87,69.87,526.74,536.74,9.00,151.00 SURF_ID='A05' /
&OBST XB=69.87,79.87,526.74,536.74,9.00,147.00 SURF_ID='A05' /
&OBST XB=79.87,89.87,526.74,536.74,9.00,143.00 SURF_ID='A05' /
&OBST XB=89.87,99.87,526.74,536.74,9.00,139.00 SURF_ID='A05' /
&OBST XB=99.87,109.87,526.74,536.74,9.00,135.00 SURF_ID='A05' /
&OBST XB=109.87,119.87,526.74,536.74,9.00,131.00 SURF_ID='A05' /
&OBST XB=119.87,129.87,526.74,536.74,9.00,127.00 SURF_ID='A05' /
&OBST XB=129.87,139.87,526.74,536.74,9.00,123.00 SURF_ID='A05' /
&OBST XB=139.87,149.87,526.74,536.74,9.00,119.00 SURF_ID='A05' /
&OBST XB=149.87,159.87,526.74,536.74,9.00,115.00 SURF_ID='A10' /
&OBST XB=159.87,169.87,526.74,536.74,9.00,111.00 SURF_ID='A05' /
&OBST XB=169.87,179.87,526.74,536.74,9.00,107.00 SURF_ID='A05' /
&OBST XB=179.87,189.87,526.74,536.74,9.00,103.00 SURF_ID='A05' /
&OBST XB=189.87,199.87,526.74,536.74,9.00,100.00 SURF_ID='A05' /
&OBST XB=199.87,209.87,526.74,536.74,9.00,96.00 SURF_ID='A05' /
&OBST XB=209.87,219.87,526.74,536.74,9.00,92.00 SURF_ID='A05' /
&OBST XB=219.87,229.87,526.74,536.74,9.00,89.00 SURF_ID='A05' /
&OBST XB=229.87,239.87,526.74,536.74,9.00,87.00 SURF_ID='A05' /
&OBST XB=239.87,249.87,526.74,536.74,9.00,86.00 SURF_ID='Urban' /
&OBST XB=249.87,259.87,526.74,536.74,9.00,85.00 SURF_ID='Urban' /
&OBST XB=259.87,269.87,526.74,536.74,9.00,83.00 SURF_ID='Urban' /
&OBST XB=269.87,279.87,526.74,536.74,9.00,82.00 SURF_ID='Urban' /
&OBST XB=279.87,289.87,526.74,536.74,9.00,81.00 SURF_ID='Urban' /
&OBST XB=289.87,299.87,526.74,536.74,9.00,80.00 SURF_ID='Urban' /
&OBST XB=299.87,309.87,526.74,536.74,9.00,78.00 SURF_ID='Urban' /
&OBST XB=309.87,319.87,526.74,536.74,9.00,77.00 SURF_ID='Urban' /
&OBST XB=319.87,329.87,526.74,536.74,9.00,76.00 SURF_ID='Urban' /
&OBST XB=329.87,339.87,526.74,536.74,9.00,74.00 SURF_ID='Urban' /
&OBST XB=339.87,349.87,526.74,536.74,9.00,73.00 SURF_ID='A09' /
&OBST XB=349.87,359.87,526.74,536.74,9.00,72.00 SURF_ID='A09' /
&OBST XB=359.87,369.87,526.74,536.74,9.00,72.00 SURF_ID='A09' /
&OBST XB=369.87,379.87,526.74,536.74,9.00,72.00 SURF_ID='A05' /
&OBST XB=379.87,389.87,526.74,536.74,9.00,71.00 SURF_ID='A05' /
&OBST XB=389.87,399.87,526.74,536.74,9.00,72.00 SURF_ID='A05' /
&OBST XB=399.87,409.87,526.74,536.74,9.00,72.00 SURF_ID='A05' /
&OBST XB=409.87,419.87,526.74,536.74,9.00,72.00 SURF_ID='A05' /
&OBST XB=419.87,429.87,526.74,536.74,9.00,72.00 SURF_ID='A05' /
&OBST XB=429.87,439.87,526.74,536.74,9.00,72.00 SURF_ID='A09' /
&OBST XB=439.87,449.87,526.74,536.74,9.00,72.00 SURF_ID='A09' /
&OBST XB=449.87,459.87,526.74,536.74,9.00,72.00 SURF_ID='A09' /
&OBST XB=459.87,469.87,526.74,536.74,9.00,72.00 SURF_ID='A09' /
&OBST XB=469.87,479.87,526.74,536.74,9.00,72.00 SURF_ID='A09' /
&OBST XB=479.87,489.87,526.74,536.74,9.00,71.00 SURF_ID='A09' /
&OBST XB=489.87,499.87,526.74,536.74,9.00,70.00 SURF_ID='A09' /
&OBST XB=499.87,509.87,526.74,536.74,9.00,69.00 SURF_ID='A05' /
&OBST XB=509.87,519.87,526.74,536.74,9.00,67.00 SURF_ID='A05' /
&OBST XB=-540.13,-530.13,516.74,526.74,9.00,174.00 SURF_ID='A05' /
&OBST XB=-530.13,-520.13,516.74,526.74,9.00,177.00 SURF_ID='Urban' /
&OBST XB=-520.13,-510.13,516.74,526.74,9.00,182.00 SURF_ID='A05' /
&OBST XB=-510.13,-500.13,516.74,526.74,9.00,186.00 SURF_ID='A05' /
&OBST XB=-500.13,-490.13,516.74,526.74,9.00,190.00 SURF_ID='A05' /
&OBST XB=-490.13,-480.13,516.74,526.74,9.00,193.00 SURF_ID='A05' /
&OBST XB=-480.13,-470.13,516.74,526.74,9.00,197.00 SURF_ID='A05' /
&OBST XB=-470.13,-460.13,516.74,526.74,9.00,199.00 SURF_ID='A05' /
&OBST XB=-460.13,-450.13,516.74,526.74,9.00,198.00 SURF_ID='A05' /
&OBST XB=-450.13,-440.13,516.74,526.74,9.00,198.00 SURF_ID='A04' /
&OBST XB=-440.13,-430.13,516.74,526.74,9.00,197.00 SURF_ID='A04' /
&OBST XB=-430.13,-420.13,516.74,526.74,9.00,195.00 SURF_ID='A04' /
&OBST XB=-420.13,-410.13,516.74,526.74,9.00,192.00 SURF_ID='A05' /
&OBST XB=-410.13,-400.13,516.74,526.74,9.00,190.00 SURF_ID='A05' /
&OBST XB=-400.13,-390.13,516.74,526.74,9.00,189.00 SURF_ID='A05' /
&OBST XB=-390.13,-380.13,516.74,526.74,9.00,188.00 SURF_ID='A05' /
&OBST XB=-380.13,-370.13,516.74,526.74,9.00,187.00 SURF_ID='A05' /
&OBST XB=-370.13,-360.13,516.74,526.74,9.00,189.00 SURF_ID='A05' /
&OBST XB=-360.13,-350.13,516.74,526.74,9.00,191.00 SURF_ID='A05' /
&OBST XB=-350.13,-340.13,516.74,526.74,9.00,194.00 SURF_ID='A05' /
&OBST XB=-340.13,-330.13,516.74,526.74,9.00,196.00 SURF_ID='A05' /
&OBST XB=-330.13,-320.13,516.74,526.74,9.00,197.00 SURF_ID='A05' /
&OBST XB=-320.13,-310.13,516.74,526.74,9.00,199.00 SURF_ID='A05' /
&OBST XB=-310.13,-300.13,516.74,526.74,9.00,198.00 SURF_ID='Barren' /
&OBST XB=-300.13,-290.13,516.74,526.74,9.00,196.00 SURF_ID='Barren' /
&OBST XB=-290.13,-280.13,516.74,526.74,9.00,193.00 SURF_ID='Barren' /
&OBST XB=-280.13,-270.13,516.74,526.74,9.00,191.00 SURF_ID='Barren' /
&OBST XB=-270.13,-260.13,516.74,526.74,9.00,189.00 SURF_ID='Barren' /
&OBST XB=-260.13,-250.13,516.74,526.74,9.00,187.00 SURF_ID='A05' /
&OBST XB=-250.13,-240.13,516.74,526.74,9.00,185.00 SURF_ID='A05' /
&OBST XB=-240.13,-230.13,516.74,526.74,9.00,186.00 SURF_ID='A05' /
&OBST XB=-230.13,-220.13,516.74,526.74,9.00,187.00 SURF_ID='A05' /
&OBST XB=-220.13,-210.13,516.74,526.74,9.00,189.00 SURF_ID='A05' /
&OBST XB=-210.13,-200.13,516.74,526.74,9.00,192.00 SURF_ID='A05' /
&OBST XB=-200.13,-190.13,516.74,526.74,9.00,196.00 SURF_ID='A05' /
&OBST XB=-190.13,-180.13,516.74,526.74,9.00,200.00 SURF_ID='A05' /
&OBST XB=-180.13,-170.13,516.74,526.74,9.00,205.00 SURF_ID='A05' /
&OBST XB=-170.13,-160.13,516.74,526.74,9.00,209.00 SURF_ID='A05' /
&OBST XB=-160.13,-150.13,516.74,526.74,9.00,213.00 SURF_ID='A05' /
&OBST XB=-150.13,-140.13,516.74,526.74,9.00,216.00 SURF_ID='A05' /
&OBST XB=-140.13,-130.13,516.74,526.74,9.00,219.00 SURF_ID='A05' /
&OBST XB=-130.13,-120.13,516.74,526.74,9.00,222.00 SURF_ID='A05' /
&OBST XB=-120.13,-110.13,516.74,526.74,9.00,223.00 SURF_ID='A05' /
&OBST XB=-110.13,-100.13,516.74,526.74,9.00,223.00 SURF_ID='A05' /
&OBST XB=-100.13,-90.13,516.74,526.74,9.00,223.00 SURF_ID='A05' /
&OBST XB=-90.13,-80.13,516.74,526.74,9.00,221.00 SURF_ID='A05' /
&OBST XB=-80.13,-70.13,516.74,526.74,9.00,218.00 SURF_ID='A05' /
&OBST XB=-70.13,-60.13,516.74,526.74,9.00,215.00 SURF_ID='A05' /
&OBST XB=-60.13,-50.13,516.74,526.74,9.00,211.00 SURF_ID='A05' /
&OBST XB=-50.13,-40.13,516.74,526.74,9.00,207.00 SURF_ID='A05' /
&OBST XB=-40.13,-30.13,516.74,526.74,9.00,202.00 SURF_ID='A05' /
&OBST XB=-30.13,-20.13,516.74,526.74,9.00,197.00 SURF_ID='A05' /
&OBST XB=-20.13,-10.13,516.74,526.74,9.00,192.00 SURF_ID='A05' /
&OBST XB=-10.13,-0.13,516.74,526.74,9.00,186.00 SURF_ID='A05' /
&OBST XB=-0.13,9.87,516.74,526.74,9.00,181.00 SURF_ID='A05' /
&OBST XB=9.87,19.87,516.74,526.74,9.00,176.00 SURF_ID='A05' /
&OBST XB=19.87,29.87,516.74,526.74,9.00,170.00 SURF_ID='A05' /
&OBST XB=29.87,39.87,516.74,526.74,9.00,165.00 SURF_ID='A05' /
&OBST XB=39.87,49.87,516.74,526.74,9.00,161.00 SURF_ID='A05' /
&OBST XB=49.87,59.87,516.74,526.74,9.00,157.00 SURF_ID='A05' /
&OBST XB=59.87,69.87,516.74,526.74,9.00,153.00 SURF_ID='A05' /
&OBST XB=69.87,79.87,516.74,526.74,9.00,149.00 SURF_ID='A05' /
&OBST XB=79.87,89.87,516.74,526.74,9.00,145.00 SURF_ID='A05' /
&OBST XB=89.87,99.87,516.74,526.74,9.00,141.00 SURF_ID='A05' /
&OBST XB=99.87,109.87,516.74,526.74,9.00,137.00 SURF_ID='A05' /
&OBST XB=109.87,119.87,516.74,526.74,9.00,133.00 SURF_ID='A05' /
&OBST XB=119.87,129.87,516.74,526.74,9.00,129.00 SURF_ID='A05' /
&OBST XB=129.87,139.87,516.74,526.74,9.00,125.00 SURF_ID='A05' /
&OBST XB=139.87,149.87,516.74,526.74,9.00,121.00 SURF_ID='A05' /
&OBST XB=149.87,159.87,516.74,526.74,9.00,117.00 SURF_ID='A05' /
&OBST XB=159.87,169.87,516.74,526.74,9.00,114.00 SURF_ID='A05' /
&OBST XB=169.87,179.87,516.74,526.74,9.00,110.00 SURF_ID='A05' /
&OBST XB=179.87,189.87,516.74,526.74,9.00,105.00 SURF_ID='A05' /
&OBST XB=189.87,199.87,516.74,526.74,9.00,101.00 SURF_ID='A05' /
&OBST XB=199.87,209.87,516.74,526.74,9.00,98.00 SURF_ID='A05' /
&OBST XB=209.87,219.87,516.74,526.74,9.00,94.00 SURF_ID='A05' /
&OBST XB=219.87,229.87,516.74,526.74,9.00,90.00 SURF_ID='A05' /
&OBST XB=229.87,239.87,516.74,526.74,9.00,89.00 SURF_ID='Urban' /
&OBST XB=239.87,249.87,516.74,526.74,9.00,87.00 SURF_ID='Urban' /
&OBST XB=249.87,259.87,516.74,526.74,9.00,86.00 SURF_ID='Urban' /
&OBST XB=259.87,269.87,516.74,526.74,9.00,85.00 SURF_ID='Urban' /
&OBST XB=269.87,279.87,516.74,526.74,9.00,83.00 SURF_ID='Urban' /
&OBST XB=279.87,289.87,516.74,526.74,9.00,82.00 SURF_ID='Urban' /
&OBST XB=289.87,299.87,516.74,526.74,9.00,81.00 SURF_ID='Urban' /
&OBST XB=299.87,309.87,516.74,526.74,9.00,79.00 SURF_ID='Urban' /