! Generated by qgis2fds 1.0.2 on QGIS 3.28.8-Firenze
! QGIS file: golden_gate.qgs
! Date: Wed, 30 Aug 2023, 17:01:22

Selected UTM CRS: WGS 84 / UTM zone 10N
Domain origin: 545218.5E 4187150.2N
  <http://www.openstreetmap.org/?mlat=37.83065223693845&mlon=-122.4861488342285&zoom=12>
Domain extent: 544696.7-545746.7E 4186808.0-4187488.0N

Desired resolution: 10.0m
DEM layer: US_DEM2016_local
Landuse layer: none
Landuse type file: none
Fire layer: none
FDS DEVCs layer: FIXME
Wind file: none

&HEAD CHID='test_geom_min' TITLE='Description of test_geom_min' /

MISC LEVEL_SET_MODE parameter
 1: Wind not affected by the terrain. No fire.
 2: Wind field established over the terrain, then frozen. No fire.
 3: Wind field following the terrain, no fire.
 4: Wind and fire fully-coupled.

&MISC ORIGIN_LAT=37.8306522
      ORIGIN_LON=-122.4861488
      NORTH_BEARING=0.
      TERRAIN_IMAGE='test_geom_min_tex.png'
      LEVEL_SET_MODE=1 
      THICKEN_OBSTRUCTIONS=T /

&TIME T_BEGIN=0.0, T_END=0.0 /

Example REAC, used when LEVEL_SET_MODE=4
_REAC ID='Wood' SOOT_YIELD=0.005 O=2.5 C=3.4 H=6.2
      HEAT_OF_COMBUSTION=17700. /

Domain and its boundary conditions
2 · 2 meshes of 524.0m · 339.0m · 318.0m size and 56576 cells each
&MULT ID='Meshes'
      DX=524.00 I_LOWER=0 I_UPPER=1
      DY=339.00 J_LOWER=0 J_UPPER=1 /
&MESH IJK=52,34,32 MULT_ID='Meshes'
      XB=-520.81,3.19,-341.13,-2.13,9.00,327.00 /
&VENT ID='Domain BC XMIN' DB='XMIN' SURF_ID='OPEN' /
&VENT ID='Domain BC XMAX' DB='XMAX' SURF_ID='OPEN' /
&VENT ID='Domain BC YMIN' DB='YMIN' SURF_ID='OPEN' /
&VENT ID='Domain BC YMAX' DB='YMAX' SURF_ID='OPEN' /
&VENT ID='Domain BC ZMAX' DB='ZMAX' SURF_ID='OPEN' /

Wind rose at domain origin
&DEVC ID='Origin_UV' XYZ=0.,0.,326.90 QUANTITY='U-VELOCITY' /
&DEVC ID='Origin_VV' XYZ=0.,0.,326.90 QUANTITY='V-VELOCITY' /
&DEVC ID='Origin_WV' XYZ=0.,0.,326.90 QUANTITY='W-VELOCITY' /

Landuse boundary conditions
none

Output quantities
&SLCF AGL_SLICE=5. QUANTITY='LEVEL SET VALUE' /
&SLCF AGL_SLICE=5. QUANTITY='TEMPERATURE' VECTOR=T /
&SLCF PBX=0.00 QUANTITY='TEMPERATURE' VECTOR=T /
&SLCF PBY=0.00 QUANTITY='TEMPERATURE' VECTOR=T /

Wind
&WIND SPEED=1., RAMP_SPEED_T='ws', RAMP_DIRECTION_T='wd' /
! Example ramps for wind speed and direction
&RAMP ID='ws', T=   0, F= 10. /
&RAMP ID='ws', T= 600, F= 10. /
&RAMP ID='ws', T=1200, F= 20. /
&RAMP ID='wd', T=   0, F=315. /
&RAMP ID='wd', T= 600, F=270. /
&RAMP ID='wd', T=1200, F=360. /

Terrain (7490 verts, 14628 faces)
&GEOM ID='Terrain'
      SURF_ID='INERT'
      BINARY_FILE='test_geom_min_terrain.bingeom'
      IS_TERRAIN=T EXTEND_TERRAIN=F /

&TAIL /
